<?xml version="1.0" encoding="UTF-8"?>

<!-- generated on 2021-10-07 21:09:05 by Eclipse SUMO netconvert Version 1.10.0
<configuration xmlns:xsi="http://www.w3.org/2001/XMLSchema-instance" xsi:noNamespaceSchemaLocation="http://sumo.dlr.de/xsd/netconvertConfiguration.xsd">

    <input>
        <type-files value="C:\Users\Voldem0rt\Desktop\GatcomSUMO_1.04\Sumo\data\typemap\osmNetconvert.typ.xml"/>
        <osm-files value="csusb.osm.xml"/>
    </input>

    <output>
        <output-file value="csusb.net.xml"/>
    </output>

    <projection>
        <proj.utm value="true"/>
    </projection>

    <processing>
        <geometry.remove value="true"/>
        <roundabouts.guess value="true"/>
    </processing>

    <tls_building>
        <tls.discard-simple value="true"/>
        <tls.join value="true"/>
        <tls.guess-signals value="true"/>
    </tls_building>

    <ramp_guessing>
        <ramps.guess value="true"/>
    </ramp_guessing>

    <edge_removal>
        <remove-edges.by-vclass value="rail,rail_electric,bicycle,pedestrian"/>
        <remove-edges.by-type value="rail,rail_urban,rail_electric,railway.tram,railway.subway"/>
    </edge_removal>

    <junctions>
        <no-internal-links value="true"/>
        <junctions.join value="true"/>
    </junctions>

    <report>
        <aggregate-warnings value="5"/>
    </report>

</configuration>
-->

<net version="1.9" junctionCornerDetail="5" limitTurnSpeed="5.50" xmlns:xsi="http://www.w3.org/2001/XMLSchema-instance" xsi:noNamespaceSchemaLocation="http://sumo.dlr.de/xsd/net_file.xsd">

    <location netOffset="-468504.16,-3780601.85" convBoundary="0.00,0.00,4853.21,4212.59" origBoundary="-117.341804,34.164776,-117.289097,34.203899" projParameter="+proj=utm +zone=11 +ellps=WGS84 +datum=WGS84 +units=m +no_defs"/>

    <type id="highway.bridleway" priority="1" numLanes="1" speed="2.78" allow="pedestrian" oneway="1" width="2.00"/>
    <type id="highway.bus_guideway" priority="1" numLanes="1" speed="27.78" allow="bus" oneway="1"/>
    <type id="highway.cycleway" priority="1" numLanes="1" speed="8.33" allow="bicycle" oneway="0" width="1.00"/>
    <type id="highway.footway" priority="1" numLanes="1" speed="2.78" allow="pedestrian" oneway="1" width="2.00"/>
    <type id="highway.ford" priority="1" numLanes="1" speed="2.78" allow="army" oneway="0"/>
    <type id="highway.living_street" priority="2" numLanes="1" speed="2.78" disallow="tram rail_urban rail rail_electric rail_fast ship" oneway="0"/>
    <type id="highway.motorway" priority="14" numLanes="2" speed="39.44" allow="private emergency authority army vip passenger hov taxi bus coach delivery truck trailer motorcycle evehicle custom1 custom2" oneway="1"/>
    <type id="highway.motorway_link" priority="9" numLanes="1" speed="22.22" allow="private emergency authority army vip passenger hov taxi bus coach delivery truck trailer motorcycle evehicle custom1 custom2" oneway="1"/>
    <type id="highway.path" priority="1" numLanes="1" speed="2.78" allow="pedestrian bicycle" oneway="0" width="2.00"/>
    <type id="highway.pedestrian" priority="1" numLanes="1" speed="2.78" allow="pedestrian" oneway="1" width="2.00"/>
    <type id="highway.primary" priority="12" numLanes="2" speed="27.78" disallow="tram rail_urban rail rail_electric rail_fast ship" oneway="0"/>
    <type id="highway.primary_link" priority="7" numLanes="1" speed="22.22" disallow="tram rail_urban rail rail_electric rail_fast ship" oneway="0"/>
    <type id="highway.raceway" priority="15" numLanes="2" speed="83.33" allow="vip" oneway="0"/>
    <type id="highway.residential" priority="3" numLanes="1" speed="13.89" disallow="tram rail_urban rail rail_electric rail_fast ship" oneway="0"/>
    <type id="highway.secondary" priority="11" numLanes="1" speed="27.78" disallow="tram rail_urban rail rail_electric rail_fast ship" oneway="0"/>
    <type id="highway.secondary_link" priority="6" numLanes="1" speed="22.22" disallow="tram rail_urban rail rail_electric rail_fast ship" oneway="0"/>
    <type id="highway.service" priority="1" numLanes="1" speed="5.56" allow="pedestrian delivery bicycle" oneway="0"/>
    <type id="highway.stairs" priority="1" numLanes="1" speed="1.39" allow="pedestrian" oneway="1" width="2.00"/>
    <type id="highway.step" priority="1" numLanes="1" speed="1.39" allow="pedestrian" oneway="1" width="2.00"/>
    <type id="highway.steps" priority="1" numLanes="1" speed="1.39" allow="pedestrian" oneway="1" width="2.00"/>
    <type id="highway.tertiary" priority="10" numLanes="1" speed="22.22" disallow="tram rail_urban rail rail_electric rail_fast ship" oneway="0"/>
    <type id="highway.tertiary_link" priority="5" numLanes="1" speed="22.22" disallow="tram rail_urban rail rail_electric rail_fast ship" oneway="0"/>
    <type id="highway.track" priority="1" numLanes="1" speed="5.56" allow="pedestrian motorcycle moped bicycle" oneway="0"/>
    <type id="highway.trunk" priority="13" numLanes="2" speed="27.78" disallow="pedestrian bicycle tram rail_urban rail rail_electric rail_fast ship" oneway="0"/>
    <type id="highway.trunk_link" priority="8" numLanes="1" speed="22.22" disallow="pedestrian bicycle tram rail_urban rail rail_electric rail_fast ship" oneway="0"/>
    <type id="highway.unclassified" priority="4" numLanes="1" speed="13.89" disallow="tram rail_urban rail rail_electric rail_fast ship" oneway="0"/>
    <type id="highway.unsurfaced" priority="1" numLanes="1" speed="8.33" disallow="tram rail_urban rail rail_electric rail_fast ship" oneway="0"/>
    <type id="railway.highspeed" priority="21" numLanes="1" speed="69.44" allow="rail_fast" oneway="1"/>
    <type id="railway.light_rail" priority="19" numLanes="1" speed="27.78" allow="rail_urban" oneway="1"/>
    <type id="railway.preserved" priority="16" numLanes="1" speed="27.78" allow="rail" oneway="1"/>
    <type id="railway.rail" priority="20" numLanes="1" speed="44.44" allow="rail" oneway="1"/>
    <type id="railway.subway" priority="18" numLanes="1" speed="27.78" allow="rail_urban" oneway="1"/>
    <type id="railway.tram" priority="17" numLanes="1" speed="13.89" allow="tram" oneway="1"/>

    <edge id="-162155429#1" from="7039366899" to="cluster_571801970_6973783549" priority="1" type="highway.service" shape="1192.73,1720.17 1184.50,1739.66 1183.35,1745.78 1184.95,1754.90 1190.25,1761.32 1212.63,1770.58 1219.48,1773.97 1224.36,1779.01 1226.91,1786.16 1226.07,1794.90 1223.31,1802.37 1222.43,1804.63 1219.23,1812.55">
        <lane id="-162155429#1_0" index="0" allow="pedestrian delivery bicycle" speed="6.71" length="119.33" shape="1192.47,1724.89 1186.04,1740.12 1184.98,1745.79 1186.45,1754.21 1191.23,1759.99 1213.29,1769.12 1220.44,1772.66 1225.75,1778.15 1228.53,1785.96 1227.64,1795.26 1224.81,1802.93 1223.92,1805.22 1223.67,1805.83"/>
    </edge>
    <edge id="-162155429#10" from="7039322881" to="7039322884" priority="1" type="highway.service">
        <lane id="-162155429#10_0" index="0" allow="pedestrian delivery bicycle" speed="6.71" length="18.71" shape="1267.09,1583.03 1259.75,1593.11"/>
    </edge>
    <edge id="-162155429#11" from="7039322880" to="7039322881" priority="1" type="highway.service">
        <lane id="-162155429#11_0" index="0" allow="pedestrian delivery bicycle" speed="6.71" length="16.41" shape="1276.75,1569.77 1270.75,1578.00"/>
    </edge>
    <edge id="-162155429#12" from="7039322877" to="7039322880" priority="1" type="highway.service">
        <lane id="-162155429#12_0" index="0" allow="pedestrian delivery bicycle" speed="6.71" length="17.58" shape="1287.11,1555.54 1280.41,1564.74"/>
    </edge>
    <edge id="-162155429#13" from="7039322876" to="7039322877" priority="1" type="highway.service">
        <lane id="-162155429#13_0" index="0" allow="pedestrian delivery bicycle" speed="6.71" length="16.08" shape="1296.58,1542.53 1290.77,1550.51"/>
    </edge>
    <edge id="-162155429#14" from="7039322872" to="7039322876" priority="1" type="highway.service" shape="1309.71,1524.14 1299.22,1536.19 1297.32,1538.81">
        <lane id="-162155429#14_0" index="0" allow="pedestrian delivery bicycle" speed="6.71" length="19.21" shape="1308.84,1527.58 1300.47,1537.19 1300.24,1537.51"/>
    </edge>
    <edge id="-162155429#15" from="7039322868" to="7039322872" priority="1" type="highway.service">
        <lane id="-162155429#15_0" index="0" allow="pedestrian delivery bicycle" speed="6.71" length="15.30" shape="1318.89,1516.05 1312.91,1522.90"/>
    </edge>
    <edge id="-162155429#16" from="7039322867" to="7039322868" priority="1" type="highway.service">
        <lane id="-162155429#16_0" index="0" allow="pedestrian delivery bicycle" speed="6.71" length="19.98" shape="1332.00,1501.00 1322.96,1511.37"/>
    </edge>
    <edge id="-162155429#17" from="571801985" to="7039322867" priority="1" type="highway.service">
        <lane id="-162155429#17_0" index="0" allow="pedestrian delivery bicycle" speed="6.71" length="16.32" shape="1342.98,1488.40 1336.07,1496.32"/>
    </edge>
    <edge id="-162155429#2" from="7039366897" to="7039366899" priority="1" type="highway.service">
        <lane id="-162155429#2_0" index="0" allow="pedestrian delivery bicycle" speed="6.71" length="17.15" shape="1199.16,1709.06 1194.97,1718.97"/>
    </edge>
    <edge id="-162155429#3" from="7039366894" to="7039366897" priority="1" type="highway.service">
        <lane id="-162155429#3_0" index="0" allow="pedestrian delivery bicycle" speed="6.71" length="17.27" shape="1205.87,1693.15 1201.65,1703.15"/>
    </edge>
    <edge id="-162155429#4" from="7039366893" to="7039366894" priority="1" type="highway.service">
        <lane id="-162155429#4_0" index="0" allow="pedestrian delivery bicycle" speed="6.71" length="19.50" shape="1213.44,1675.22 1208.37,1687.23"/>
    </edge>
    <edge id="-162155429#5" from="7039366890" to="7039366893" priority="1" type="highway.service" shape="1221.87,1655.23 1215.00,1667.41 1213.71,1670.49">
        <lane id="-162155429#5_0" index="0" allow="pedestrian delivery bicycle" speed="6.71" length="17.32" shape="1221.30,1659.49 1216.44,1668.11 1215.94,1669.30"/>
    </edge>
    <edge id="-162155429#6" from="7039366889" to="7039366890" priority="1" type="highway.service">
        <lane id="-162155429#6_0" index="0" allow="pedestrian delivery bicycle" speed="6.71" length="18.08" shape="1230.26,1643.61 1224.40,1654.00"/>
    </edge>
    <edge id="-162155429#7" from="7039366886" to="7039366889" priority="1" type="highway.service">
        <lane id="-162155429#7_0" index="0" allow="pedestrian delivery bicycle" speed="6.71" length="17.97" shape="1239.06,1627.99 1233.34,1638.14"/>
    </edge>
    <edge id="-162155429#8" from="7039366885" to="7039366886" priority="1" type="highway.service">
        <lane id="-162155429#8_0" index="0" allow="pedestrian delivery bicycle" speed="6.71" length="17.21" shape="1247.52,1613.00 1242.15,1622.52"/>
    </edge>
    <edge id="-162155429#9" from="7039322884" to="7039366885" priority="1" type="highway.service" shape="1256.84,1594.40 1253.87,1598.47 1248.03,1608.84">
        <lane id="-162155429#9_0" index="0" allow="pedestrian delivery bicycle" speed="6.71" length="16.94" shape="1256.09,1598.14 1255.22,1599.33 1250.60,1607.53"/>
    </edge>
    <edge id="-164423261#0" from="5324614620" to="570726839" priority="10" type="highway.tertiary" shape="1701.50,2239.64 1668.05,2252.10 1645.82,2260.83 1626.18,2270.49 1592.43,2290.58">
        <lane id="-164423261#0_0" index="0" disallow="tram rail_urban rail rail_electric rail_fast ship" speed="11.18" length="120.74" shape="1698.27,2245.96 1669.77,2256.58 1647.76,2265.22 1628.47,2274.72 1599.43,2292.00"/>
        <lane id="-164423261#0_1" index="1" disallow="tram rail_urban rail rail_electric rail_fast ship" speed="11.18" length="120.74" shape="1697.15,2242.96 1668.62,2253.59 1646.47,2262.29 1626.95,2271.90 1597.79,2289.25"/>
    </edge>
    <edge id="-164423261#1" from="54706920" to="5324614620" priority="10" type="highway.tertiary">
        <lane id="-164423261#1_0" index="0" disallow="tram rail_urban rail rail_electric rail_fast ship" speed="11.18" length="146.38" shape="1833.71,2195.72 1707.08,2242.69"/>
        <lane id="-164423261#1_1" index="1" disallow="tram rail_urban rail rail_electric rail_fast ship" speed="11.18" length="146.38" shape="1832.59,2192.72 1705.97,2239.69"/>
    </edge>
    <edge id="-164423265" from="1760604756" to="1760604646" priority="3" type="highway.residential" shape="3341.06,1906.78 3322.01,1891.15 3315.43,1884.19 3310.30,1876.80 3305.92,1868.40 3301.32,1856.86 3299.47,1849.89 3299.14,1840.31 3299.30,1830.74 3300.83,1822.01 3304.27,1811.56 3309.10,1802.01 3314.69,1793.66 3337.04,1764.78 3342.32,1757.28 3345.99,1750.10 3348.78,1741.05 3350.78,1731.47 3351.75,1722.21 3351.65,1713.01 3351.17,1699.15">
        <lane id="-164423265_0" index="0" disallow="tram rail_urban rail rail_electric rail_fast ship" speed="13.89" length="237.48" shape="3334.29,1903.29 3320.92,1892.32 3314.19,1885.20 3308.93,1877.63 3304.46,1869.07 3299.80,1857.36 3297.88,1850.12 3297.54,1840.32 3297.70,1830.59 3299.28,1821.62 3302.78,1810.95 3307.72,1801.20 3313.39,1792.72 3335.76,1763.83 3340.95,1756.45 3344.50,1749.49 3347.23,1740.65 3349.19,1731.22 3350.15,1722.13 3350.05,1713.05 3349.82,1706.45"/>
    </edge>
    <edge id="-164423273#0" from="1760604665" to="54700579" priority="3" type="highway.residential" shape="3472.51,1720.20 3486.79,1701.40 3502.95,1685.68 3536.31,1638.90 3545.31,1625.69 3555.70,1608.29 3564.37,1590.74 3573.19,1567.30 3577.96,1549.60 3581.65,1530.97 3583.65,1509.33 3584.12,1456.42 3584.90,1367.17">
        <lane id="-164423273#0_0" index="0" disallow="tram rail_urban rail rail_electric rail_fast ship" speed="13.89" length="385.70" shape="3475.52,1713.60 3485.59,1700.34 3501.73,1684.64 3534.99,1637.99 3543.96,1624.83 3554.29,1607.52 3562.90,1590.10 3571.66,1566.80 3576.40,1549.23 3580.06,1530.74 3582.05,1509.25 3582.52,1456.41 3583.25,1372.78"/>
    </edge>
    <edge id="-164423273#1" from="1760604756" to="1760604665" priority="3" type="highway.residential">
        <lane id="-164423273#1_0" index="0" disallow="tram rail_urban rail rail_electric rail_fast ship" speed="13.89" length="228.23" shape="3344.04,1899.77 3467.11,1725.09"/>
    </edge>
    <edge id="-164423273#2" from="1760604797" to="1760604756" priority="3" type="highway.residential" shape="3310.54,1956.77 3309.97,1952.27 3311.05,1947.44 3320.15,1936.56 3341.06,1906.78">
        <lane id="-164423273#2_0" index="0" disallow="tram rail_urban rail rail_electric rail_fast ship" speed="13.89" length="60.06" shape="3308.52,1953.58 3308.35,1952.19 3309.57,1946.71 3318.88,1935.58 3335.75,1911.56"/>
    </edge>
    <edge id="-164423277#0" from="1760604646" to="1760604665" priority="3" type="highway.residential" shape="3351.17,1699.15 3390.80,1697.28 3409.24,1696.35 3421.86,1697.14 3434.48,1700.00 3448.11,1704.62 3460.58,1711.56 3472.51,1720.20">
        <lane id="-164423277#0_0" index="0" disallow="tram rail_urban rail rail_electric rail_fast ship" speed="13.89" length="127.12" shape="3358.24,1697.22 3390.72,1695.69 3409.25,1694.75 3422.09,1695.55 3434.92,1698.46 3448.76,1703.15 3461.44,1710.20 3467.70,1714.74"/>
    </edge>
    <edge id="-164423277#1" from="1760604664" to="1760604646" priority="3" type="highway.residential" shape="3262.77,1720.04 3272.40,1710.02 3280.98,1705.84 3286.75,1703.85 3297.93,1702.01 3321.50,1700.56 3351.17,1699.15">
        <lane id="-164423277#1_0" index="0" disallow="tram rail_urban rail rail_electric rail_fast ship" speed="13.89" length="94.19" shape="3261.62,1718.93 3271.44,1708.71 3280.36,1704.36 3286.35,1702.29 3297.75,1700.42 3321.41,1698.96 3343.86,1697.90"/>
    </edge>
    <edge id="-164423279" from="1760604797" to="1760604738" priority="3" type="highway.residential" shape="3310.54,1956.77 3313.23,1960.86 3316.55,1964.15 3327.69,1969.49 3340.92,1973.94 3353.71,1975.54 3365.38,1975.08 3382.38,1972.15 3454.42,1951.78 3469.57,1948.36 3652.23,1895.25 3670.76,1892.30 3673.45,1890.04 3676.33,1885.84">
        <lane id="-164423279_0" index="0" disallow="tram rail_urban rail rail_electric rail_fast ship" speed="13.89" length="385.69" shape="3314.53,1959.90 3317.48,1962.82 3328.29,1968.01 3341.28,1972.37 3353.78,1973.94 3365.21,1973.48 3382.03,1970.59 3454.03,1950.23 3469.17,1946.81 3651.88,1893.69 3670.07,1890.79 3672.26,1888.96 3675.01,1884.94"/>
    </edge>
    <edge id="-164423282#0" from="1760604832" to="1760604839" priority="1" type="highway.service" shape="3257.51,1991.87 3252.09,1994.84 3247.37,1998.69">
        <lane id="-164423282#0_0" index="0" allow="pedestrian delivery bicycle" speed="5.56" length="12.27" shape="3254.36,1995.42 3252.99,1996.18 3248.38,1999.93"/>
    </edge>
    <edge id="-164423282#1" from="1760604797" to="1760604832" priority="1" type="highway.service" shape="3310.54,1956.77 3301.28,1963.33 3297.18,1968.22 3286.64,1985.41 3281.93,1989.52 3277.73,1991.97 3271.78,1992.08 3264.51,1991.85 3257.51,1991.87">
        <lane id="-164423282#1_0" index="0" allow="pedestrian delivery bicycle" speed="5.56" length="69.24" shape="3307.53,1960.86 3302.38,1964.51 3298.48,1969.16 3287.88,1986.46 3282.87,1990.83 3278.18,1993.56 3271.77,1993.68 3264.49,1993.45 3261.07,1993.46"/>
    </edge>
    <edge id="-164423286" from="1760604832" to="4354771093" priority="1" type="highway.track" shape="3257.51,1991.87 3247.91,1970.89 3243.26,1940.06 3245.90,1915.57 3251.61,1834.60 3252.25,1815.33 3251.86,1800.61 3251.48,1790.85 3249.34,1778.75 3235.60,1721.80 3230.84,1709.36 3225.73,1698.31 3220.80,1689.78 3215.35,1682.74 3207.63,1676.14 3199.74,1672.51 3190.54,1670.71 3137.06,1671.12 3110.39,1670.86 3084.02,1670.40">
        <lane id="-164423286_0" index="0" allow="pedestrian motorcycle moped bicycle" speed="5.56" length="453.68" shape="3254.19,1988.46 3246.36,1971.36 3241.65,1940.09 3244.30,1915.43 3250.01,1834.51 3250.65,1815.33 3250.26,1800.66 3249.88,1791.03 3247.77,1779.08 3234.07,1722.28 3229.36,1709.98 3224.30,1699.05 3219.47,1690.67 3214.19,1683.85 3206.75,1677.51 3199.24,1674.04 3190.39,1672.31 3137.06,1672.72 3110.37,1672.46 3091.02,1672.12"/>
    </edge>
    <edge id="-164423288" from="1760604827" to="1760604824" priority="1" type="highway.service">
        <lane id="-164423288_0" index="0" allow="pedestrian delivery bicycle" speed="5.56" length="9.68" shape="1926.01,1990.13 1929.95,1987.29"/>
    </edge>
    <edge id="-164423307" from="1760604563" to="1760604570" priority="1" type="highway.service" shape="2431.70,778.60 2430.95,854.28 2430.67,882.99 2436.42,900.54">
        <lane id="-164423307_0" index="0" allow="pedestrian delivery bicycle" speed="5.56" length="122.87" shape="2433.30,778.61 2432.55,854.29 2432.27,882.74 2436.15,894.57"/>
    </edge>
    <edge id="-164423308#1" from="cluster_1760604826_2460998374" to="1760604812" priority="1" type="highway.service" shape="2089.71,1986.60 2084.16,1982.25 2082.46,1980.92 2067.52,1970.23 2057.19,1965.62 2046.97,1963.99 2035.48,1964.45 2024.83,1968.20 2013.05,1975.16">
        <lane id="-164423308#1_0" index="0" allow="pedestrian delivery bicycle" speed="5.56" length="90.40" shape="2084.88,1984.85 2083.18,1983.51 2081.50,1982.21 2066.72,1971.62 2056.73,1967.17 2046.87,1965.60 2035.78,1966.04 2025.51,1969.65 2013.86,1976.54"/>
    </edge>
    <edge id="-164423310#0" from="1760604802" to="1760604786" priority="1" type="highway.service" shape="1904.37,1966.09 1895.97,1951.29 1893.23,1936.14">
        <lane id="-164423310#0_0" index="0" allow="pedestrian delivery bicycle" speed="6.71" length="32.41" shape="1900.75,1962.96 1894.44,1951.85 1891.66,1936.43"/>
    </edge>
    <edge id="-164423310#1" from="1760604827" to="1760604802" priority="1" type="highway.service">
        <lane id="-164423310#1_0" index="0" allow="pedestrian delivery bicycle" speed="6.71" length="33.78" shape="1919.03,1991.11 1905.62,1970.87"/>
    </edge>
    <edge id="-164423310#2" from="5324614597" to="1760604827" priority="1" type="highway.service">
        <lane id="-164423310#2_0" index="0" allow="pedestrian delivery bicycle" speed="6.71" length="48.26" shape="1944.95,2032.03 1924.08,1998.92"/>
    </edge>
    <edge id="-164423310#4" from="cluster_1760604882_2460998375" to="5324614597" priority="1" type="highway.service" shape="2003.28,2105.78 1999.24,2100.78 1998.61,2100.02 1971.34,2069.30 1948.77,2035.08">
        <lane id="-164423310#4_0" index="0" allow="pedestrian delivery bicycle" speed="6.71" length="94.31" shape="1998.79,2102.78 1998.00,2101.79 1997.40,2101.06 1970.07,2070.28 1950.03,2039.90"/>
    </edge>
    <edge id="-164423310#6" from="1760604885" to="cluster_1760604882_2460998375" priority="1" type="highway.service" shape="2017.79,2121.68 2009.69,2112.99">
        <lane id="-164423310#6_0" index="0" allow="pedestrian delivery bicycle" speed="6.71" length="16.70" shape="2016.62,2122.77 2011.70,2117.49"/>
    </edge>
    <edge id="-164423311#1" from="570726839" to="1760604899" priority="1" type="highway.service" shape="1592.43,2290.58 1585.84,2282.09 1567.77,2258.97 1565.62,2257.07 1562.90,2255.94 1559.05,2255.47 1555.33,2256.31 1550.76,2259.00">
        <lane id="-164423311#1_0" index="0" allow="pedestrian delivery bicycle" speed="5.56" length="58.90" shape="1586.17,2285.12 1584.58,2283.07 1566.60,2260.07 1564.76,2258.44 1562.49,2257.50 1559.13,2257.09 1555.93,2257.82 1551.57,2260.38"/>
    </edge>
    <edge id="-164423311#2" from="1760604907" to="570726839" priority="1" type="highway.service">
        <lane id="-164423311#2_0" index="0" allow="pedestrian delivery bicycle" speed="5.56" length="17.32" shape="1601.28,2305.55 1596.35,2298.73"/>
    </edge>
    <edge id="-164423321" from="54609669" to="1760604493" priority="3" type="highway.residential" shape="2993.24,1057.00 2994.19,849.58 2993.05,659.24 2994.11,648.10 2994.36,540.88 2994.41,519.70 2994.45,500.67 2994.58,467.88 2994.61,434.50 2994.62,427.35 2995.25,365.36 2996.26,244.82 2995.43,241.44 2994.22,236.42 2994.50,199.13 2994.54,193.97 2995.59,188.62 2996.02,95.82">
        <lane id="-164423321_0" index="0" disallow="tram rail_urban rail rail_electric rail_fast ship" speed="13.89" length="961.59" shape="2991.68,1049.80 2992.59,849.58 2991.45,659.17 2992.51,648.02 2992.76,540.88 2992.81,519.70 2992.85,500.66 2992.98,467.87 2993.01,434.50 2993.02,427.34 2993.65,365.35 2994.65,245.01 2993.88,241.82 2992.62,236.61 2992.90,199.12 2992.95,193.81 2993.99,188.46 2994.42,95.81"/>
    </edge>
    <edge id="-165392477#0" from="8095575132" to="1769426512" priority="1" type="highway.track">
        <lane id="-165392477#0_0" index="0" allow="pedestrian motorcycle moped bicycle" speed="5.56" length="358.86" shape="344.17,2407.05 53.53,2609.37"/>
    </edge>
    <edge id="-165392477#1" from="1769426465" to="8095575132" priority="1" type="highway.track">
        <lane id="-165392477#1_0" index="0" allow="pedestrian motorcycle moped bicycle" speed="5.56" length="65.81" shape="394.37,2372.11 362.41,2394.35"/>
    </edge>
    <edge id="-165392477#2" from="1769426442" to="1769426465" priority="1" type="highway.track" shape="573.84,2224.91 565.86,2234.04 552.92,2262.09 536.14,2308.37 528.62,2317.73 519.03,2321.87 507.13,2320.31 494.53,2315.12 482.86,2312.88 472.80,2317.01 401.15,2365.44">
        <lane id="-165392477#2_0" index="0" allow="pedestrian motorcycle moped bicycle" speed="5.56" length="249.57" shape="575.04,2225.96 567.22,2234.92 554.40,2262.70 537.55,2309.17 529.62,2319.05 519.26,2323.51 506.71,2321.87 494.07,2316.66 483.02,2314.54 473.56,2318.43 409.18,2361.94"/>
    </edge>
    <edge id="-165392488#1" from="5324614617" to="5324614601" priority="1" type="highway.service" shape="1625.26,2094.08 1637.44,2089.63 1655.82,2078.76 1674.54,2065.76 1677.72,2062.96 1688.96,2047.15 1704.79,2036.97 1708.94,2032.10">
        <lane id="-165392488#1_0" index="0" allow="pedestrian delivery bicycle" speed="6.71" length="105.96" shape="1629.71,2090.75 1636.75,2088.18 1654.95,2077.41 1673.55,2064.50 1676.53,2061.88 1687.84,2045.97 1703.72,2035.75 1703.92,2035.52"/>
    </edge>
    <edge id="-165392488#2" from="7900978481" to="5324614617" priority="1" type="highway.service" shape="1546.48,2134.24 1560.06,2124.92 1582.88,2109.76 1586.59,2108.05 1607.74,2099.37 1625.26,2094.08">
        <lane id="-165392488#2_0" index="0" allow="pedestrian delivery bicycle" speed="6.71" length="89.11" shape="1548.47,2130.94 1559.17,2123.60 1582.09,2108.36 1585.95,2106.59 1607.21,2097.86 1620.94,2093.71"/>
    </edge>
    <edge id="-165392488#4" from="5324615456" to="7900978481" priority="1" type="highway.service" shape="1508.70,2152.90 1520.75,2148.68 1540.54,2137.57 1546.48,2134.24">
        <lane id="-165392488#4_0" index="0" allow="pedestrian delivery bicycle" speed="6.71" length="42.28" shape="1514.68,2149.11 1520.09,2147.22 1539.76,2136.18 1540.35,2135.84"/>
    </edge>
    <edge id="-165392488#5" from="571802148" to="5324615456" priority="1" type="highway.service" shape="1423.35,2170.21 1428.10,2162.23 1433.26,2155.91 1439.24,2152.83 1446.71,2152.14 1453.73,2153.79 1461.55,2155.42 1473.57,2156.41 1487.03,2156.26 1508.70,2152.90">
        <lane id="-165392488#5_0" index="0" allow="pedestrian delivery bicycle" speed="6.71" length="94.32" shape="1424.66,2164.88 1426.78,2161.31 1432.24,2154.64 1438.78,2151.27 1446.82,2150.53 1454.08,2152.23 1461.78,2153.84 1473.63,2154.81 1486.90,2154.66 1503.92,2152.02"/>
    </edge>
    <edge id="-165392493#1" from="1769426426" to="1769426439" priority="1" type="highway.service" shape="1443.51,2184.14 1447.04,2185.95 1454.33,2189.71 1461.34,2201.21">
        <lane id="-165392493#1_0" index="0" allow="pedestrian delivery bicycle" speed="5.56" length="25.63" shape="1448.62,2184.97 1455.46,2188.49 1462.71,2200.37"/>
    </edge>
    <edge id="-165392493#2" from="571802148" to="1769426426" priority="1" type="highway.service" shape="1423.35,2170.21 1429.24,2176.67 1443.51,2184.14">
        <lane id="-165392493#2_0" index="0" allow="pedestrian delivery bicycle" speed="5.56" length="24.85" shape="1428.60,2173.60 1430.23,2175.38 1440.30,2180.65"/>
    </edge>
    <edge id="-165392494#0" from="7377661451" to="1769426450" priority="1" type="highway.service" shape="1428.06,2317.24 1431.72,2313.47 1444.63,2303.49 1458.10,2295.30">
        <lane id="-165392494#0_0" index="0" allow="pedestrian delivery bicycle" speed="5.56" length="37.34" shape="1429.03,2313.94 1430.65,2312.27 1443.72,2302.17 1457.27,2293.93"/>
    </edge>
    <edge id="-165392494#1" from="1769426463" to="7377661451" priority="1" type="highway.service" shape="1417.86,2328.97 1423.81,2321.60 1428.06,2317.24">
        <lane id="-165392494#1_0" index="0" allow="pedestrian delivery bicycle" speed="5.56" length="15.56" shape="1419.74,2324.10 1422.61,2320.54 1424.71,2318.39"/>
    </edge>
    <edge id="-182417506#0" from="1927661563" to="1769426324" priority="1" type="highway.service">
        <lane id="-182417506#0_0" index="0" allow="pedestrian delivery bicycle" speed="6.71" length="10.07" shape="1285.12,1838.11 1287.01,1834.19"/>
    </edge>
    <edge id="-182417506#1" from="7283817204" to="1927661563" priority="1" type="highway.service" shape="1265.20,1918.04 1263.96,1912.95 1264.17,1899.80 1266.48,1889.88 1274.64,1869.93 1284.08,1843.95">
        <lane id="-182417506#1_0" index="0" allow="pedestrian delivery bicycle" speed="6.71" length="77.77" shape="1262.64,1914.29 1262.36,1913.14 1262.57,1899.61 1264.95,1889.40 1273.15,1869.35 1279.97,1850.59"/>
    </edge>
    <edge id="-182417506#7" from="5324615451" to="7283817204" priority="1" type="highway.service" shape="1375.74,2116.11 1367.73,2101.64 1361.74,2092.25 1338.39,2055.61 1316.67,2017.55 1301.93,1991.72 1301.52,1990.98 1270.92,1935.09 1267.11,1925.82 1265.20,1918.04">
        <lane id="-182417506#7_0" index="0" allow="pedestrian delivery bicycle" speed="6.71" length="227.28" shape="1372.72,2113.97 1366.35,2102.46 1360.39,2093.11 1337.02,2056.44 1315.28,2018.34 1300.54,1992.51 1300.12,1991.77 1269.47,1935.78 1265.58,1926.32 1264.16,1920.49"/>
    </edge>
    <edge id="-182417506#8" from="571802148" to="5324615451" priority="1" type="highway.service" shape="1423.35,2170.21 1412.39,2161.09 1400.89,2148.79 1387.60,2133.33 1375.74,2116.11">
        <lane id="-182417506#8_0" index="0" allow="pedestrian delivery bicycle" speed="6.71" length="72.39" shape="1418.29,2168.08 1411.29,2162.26 1399.70,2149.85 1386.33,2134.30 1376.23,2119.64"/>
    </edge>
    <edge id="-182417518" from="571802040" to="1927661563" priority="1" type="highway.service" shape="1268.28,1833.01 1275.71,1836.61 1284.08,1843.95">
        <lane id="-182417518_0" index="0" allow="pedestrian delivery bicycle" speed="5.56" length="19.39" shape="1274.60,1834.29 1276.61,1835.26 1280.84,1838.98"/>
    </edge>
    <edge id="-185937927#0" from="6378302210" to="1966238448" priority="11" type="highway.secondary">
        <lane id="-185937927#0_0" index="0" disallow="tram rail_urban rail rail_electric rail_fast ship" speed="27.78" length="16.51" shape="259.12,1580.96 263.53,1578.21"/>
        <lane id="-185937927#0_1" index="1" disallow="tram rail_urban rail rail_electric rail_fast ship" speed="27.78" length="16.51" shape="260.81,1583.68 265.22,1580.92"/>
    </edge>
    <edge id="-185937927#1" from="3590156146" to="6378302210" priority="11" type="highway.secondary">
        <lane id="-185937927#1_0" index="0" disallow="tram rail_urban rail rail_electric rail_fast ship" speed="27.78" length="77.14" shape="193.57,1621.85 246.90,1588.58"/>
        <lane id="-185937927#1_1" index="1" disallow="tram rail_urban rail rail_electric rail_fast ship" speed="27.78" length="77.14" shape="195.27,1624.56 248.59,1591.30"/>
    </edge>
    <edge id="-185937927#2" from="cluster_54792660_7028184031" to="3590156146" priority="11" type="highway.secondary" shape="58.87,1712.13 160.57,1648.09 190.01,1629.73">
        <lane id="-185937927#2_0" index="0" disallow="tram rail_urban rail rail_electric rail_fast ship" speed="27.78" length="161.40" shape="58.98,1706.39 158.02,1644.02 181.35,1629.47"/>