<?xml version="1.0" encoding="UTF-8"?>

<!-- generated on 2021-10-07 21:26:47 by Eclipse SUMO polyconvert Version 1.10.0
<configuration xmlns:xsi="http://www.w3.org/2001/XMLSchema-instance" xsi:noNamespaceSchemaLocation="http://sumo.dlr.de/xsd/polyconvertConfiguration.xsd">

    <input>
        <net-file value="csusb.net.xml"/>
        <osm-files value="csusb.osm.xml"/>
    </input>

    <output>
        <output-file value="csusb.poly.xml"/>
    </output>

    <processing>
        <poi-layer-offset value="5"/>
    </processing>

</configuration>
-->

<additional xmlns:xsi="http://www.w3.org/2001/XMLSchema-instance" xsi:noNamespaceSchemaLocation="http://sumo.dlr.de/xsd/additional_file.xsd">
    <location netOffset="-468504.16,-3780601.85" convBoundary="-7606.19,-20879.51,42874.58,9025.13" origBoundary="-117.424606,33.977994,-116.876811,34.247035" projParameter="+proj=utm +zone=11 +ellps=WGS84 +datum=WGS84 +units=m +no_defs"/>

    <poly id="164423274" type="landuse" color="194,194,130" fill="1" layer="-3.00" shape="4044.172675,2028.730445 3865.331327,1938.452634 3818.392980,1930.052785 3791.258588,1931.352456 3767.984290,1935.435062 3495.451434,2016.234100 3422.164698,2037.709019 3377.012364,2044.119998 3332.175790,2039.031688 3286.973084,2025.573029 3244.544516,2006.174008 3242.513738,2029.532061 3247.654082,2050.462394 3286.050826,2056.013164 3285.138110,2080.421240 3386.192690,2094.167263 3450.815930,2093.974167 3502.031067,2081.247326 3539.700921,2093.454270 3602.805758,2084.640046 3637.217166,2082.575334 3675.054920,2101.756856 3707.993815,2112.803122 3858.398949,2056.596539 3909.512503,2056.102607 3953.597242,2043.765085 4005.428582,2046.063820 4034.465622,2036.908698 4044.172675,2028.730445"/>
    <poly id="164423316" type="water" color="181,209,209" fill="0" layer="-4.00" shape="1327.396879,1359.442173 2300.574216,508.015131 2369.056618,455.865222 2430.562226,412.452774 2626.017458,298.550591 2639.256516,290.836865 3387.447562,-133.592978"/>
    <poly id="165392475" type="building" color="255,230,230" fill="1" layer="-1.00" shape="2066.764872,1898.051904 2077.854203,1887.427850 2084.011990,1873.381870 2084.295804,1858.068033 2078.676012,1843.803887 2067.997996,1832.771191 2053.898060,1826.639170 2038.507850,1826.343662 2024.177439,1831.943834 2013.088102,1842.567950 2009.839971,1849.974040 2007.955175,1854.282217 2006.898585,1858.221881 2006.812286,1863.023388 2006.692920,1869.033624 2006.637496,1871.927846 2012.257382,1886.191950 2022.935439,1897.235671 2037.044505,1903.367617 2052.434555,1903.652034 2066.764872,1898.051904"/>
    <poly id="165392499" type="water" color="181,209,209" fill="1" layer="-4.00" shape="2082.328628,2442.483536 2042.502835,2533.421602 2014.089102,2552.194534 1934.608129,2588.193017 1874.503717,2608.995512 1775.566558,2628.623827 1627.452383,2648.098931 1544.632693,2650.613529 1495.447027,2647.876412 1438.160813,2639.033621 1377.278672,2620.877425 1010.609197,2486.804628 990.504462,2473.020562 992.638410,2432.108794 998.693507,2404.068936 1097.816968,2441.758495 1479.329954,2563.867308 1543.109630,2577.513069 1604.580381,2577.960416 1671.828564,2563.897387 2002.175271,2467.206718 2050.305262,2444.513210 2069.662621,2426.101404 2082.328628,2442.483536"/>
    <poly id="179852265" type="building" color="255,230,230" fill="1" layer="-1.00" shape="2107.063419,1706.852143 2106.919567,1690.319935 2112.485468,1690.280355 2117.922322,1690.230093 2117.821039,1678.465722 2173.774730,1677.980504 2173.905928,1693.448274 2174.193085,1726.412897 2154.933739,1726.572802 2154.925561,1712.146947 2153.017988,1712.141815 2107.063419,1706.852143"/>
    <poly id="179852265#1" type="leisure" color="207,245,201" fill="1" layer="-2.00" shape="2107.063419,1706.852143 2106.919567,1690.319935 2112.485468,1690.280355 2117.922322,1690.230093 2117.821039,1678.465722 2173.774730,1677.980504 2173.905928,1693.448274 2174.193085,1726.412897 2154.933739,1726.572802 2154.925561,1712.146947 2153.017988,1712.141815 2107.063419,1706.852143"/>
    <poly id="179852265#2" type="sport" color="79,230,125" fill="1" layer="-2.00" shape="2107.063419,1706.852143 2106.919567,1690.319935 2112.485468,1690.280355 2117.922322,1690.230093 2117.821039,1678.465722 2173.774730,1677.980504 2173.905928,1693.448274 2174.193085,1726.412897 2154.933739,1726.572802 2154.925561,1712.146947 2153.017988,1712.141815 2107.063419,1706.852143"/>
    <poly id="179865372" type="leisure" color="207,245,201" fill="1" layer="-2.00" shape="2256.171643,1607.878585 2256.538309,1687.225313 2369.847738,1686.718225 2369.482029,1607.371499 2256.171643,1607.878585"/>
    <poly id="179865372#1" type="sport" color="79,230,125" fill="1" layer="-2.00" shape="2256.171643,1607.878585 2256.538309,1687.225313 2369.847738,1686.718225 2369.482029,1607.371499 2256.171643,1607.878585"/>
    <poly id="179865375" type="leisure" color="207,245,201" fill="1" layer="-2.00" shape="2318.625589,1908.144156 2245.857994,1956.704290 2313.615079,2057.308491 2386.382199,2008.737784 2318.625589,1908.144156"/>
    <poly id="179865375#1" type="sport" color="79,230,125" fill="1" layer="-2.00" shape="2318.625589,1908.144156 2245.857994,1956.704290 2313.615079,2057.308491 2386.382199,2008.737784 2318.625589,1908.144156"/>
    <poly id="179891894" type="building" color="255,230,230" fill="1" layer="-1.00" shape="1741.469863,1475.070528 1726.931017,1484.807743 1730.060497,1489.432742 1731.936467,1488.173823 1733.010508,1489.767137 1731.989778,1490.457844 1732.656375,1491.431504 1737.165505,1492.304290 1742.517588,1488.728000 1744.323047,1491.394565 1742.447076,1492.653482 1745.391360,1497.001865 1747.359309,1495.687216 1749.257375,1498.497637 1743.785916,1502.207361 1742.989286,1506.733910 1743.581842,1507.608010 1744.565815,1506.950685 1745.602815,1508.488677 1743.809610,1509.691890 1746.966859,1514.361160 1761.643595,1504.523744 1758.384489,1499.699555 1756.379748,1501.036495 1755.416788,1499.598063 1757.458285,1498.227742 1756.708331,1497.121284 1758.078545,1496.207708 1758.856250,1497.347342 1763.766913,1494.060757 1757.869071,1485.341834 1752.156333,1476.877361 1747.273242,1480.141688 1748.106522,1481.369852 1746.855862,1482.205433 1746.087369,1481.065771 1743.953892,1482.491827 1743.074288,1481.186192 1744.812346,1480.027506 1741.469863,1475.070528"/>
    <poly id="179891895" type="building" color="255,230,230" fill="1" layer="-1.00" shape="1869.292408,1493.794050 1859.331383,1479.466105 1854.715223,1482.640828 1856.002002,1484.488517 1854.420383,1485.580158 1853.716831,1484.573342 1852.742098,1485.241714 1851.926913,1489.746135 1855.592884,1495.023693 1852.935376,1496.850556 1851.648598,1495.002868 1847.308350,1497.999312 1848.659916,1499.935501 1845.855279,1501.862625 1842.069120,1496.463479 1837.514381,1495.734935 1836.640810,1496.336460 1837.307361,1497.299039 1835.780933,1498.357244 1834.549689,1496.587002 1829.905970,1499.784001 1839.968878,1514.266830 1844.778120,1510.958430 1843.408020,1508.989035 1844.842503,1507.997651 1846.240424,1510.022400 1847.343889,1509.264914 1848.288123,1510.614708 1847.138651,1511.394516 1850.508362,1516.240562 1859.198096,1510.258738 1867.621155,1504.455176 1864.269985,1499.642330 1863.046998,1500.488897 1862.195303,1499.260781 1863.326347,1498.481034 1861.872890,1496.378839 1863.169426,1495.476599 1864.363628,1497.191520 1869.292408,1493.794050"/>
    <poly id="179891896" type="building" color="255,230,230" fill="1" layer="-1.00" shape="1807.722091,1493.234333 1817.572877,1507.651279 1822.207583,1504.520832 1820.939196,1502.662002 1822.530059,1501.581414 1823.224432,1502.599345 1824.199161,1501.930970 1825.060409,1497.426400 1821.440428,1492.126533 1824.116398,1490.310691 1825.384786,1492.169521 1829.743635,1489.228450 1828.410425,1487.270029 1831.224348,1485.365047 1834.973761,1490.797570 1839.519428,1491.570495 1840.402215,1490.968941 1839.735663,1490.006362 1841.280559,1488.959187 1842.493406,1490.740577 1847.164885,1487.576761 1837.221481,1473.004841 1832.384471,1476.280067 1833.736182,1478.260607 1832.301661,1479.240905 1830.912913,1477.205041 1829.800195,1477.951469 1828.874386,1476.601618 1830.023860,1475.821809 1826.700097,1470.942360 1817.964059,1476.857830 1809.485468,1482.583994 1812.790700,1487.430230 1814.022935,1486.594716 1814.865457,1487.833945 1813.725166,1488.602639 1815.169488,1490.727032 1813.863671,1491.607131 1812.687855,1489.881070 1807.722091,1493.234333"/>
    <poly id="179891897" type="building" color="255,230,230" fill="1" layer="-1.00" shape="1767.350959,1423.893734 1752.811971,1433.619820 1755.941490,1438.255915 1757.817474,1436.997001 1758.891516,1438.590318 1757.870743,1439.269934 1758.528161,1440.254713 1763.046528,1441.127482 1768.398650,1437.551208 1770.204111,1440.217778 1768.328092,1441.465601 1771.272415,1445.825080 1773.240378,1444.510436 1775.138446,1447.320863 1769.666913,1451.019483 1768.870265,1455.546029 1769.462857,1456.431219 1770.446837,1455.773897 1771.483838,1457.311892 1769.690585,1458.504011 1772.847839,1463.173289 1787.524716,1453.347003 1784.256391,1448.522835 1782.260851,1449.859740 1781.288674,1448.421335 1783.339402,1447.050990 1782.589447,1445.944531 1783.959636,1445.019870 1784.737377,1446.170595 1789.648075,1442.884024 1783.750191,1434.153997 1778.037481,1425.700596 1773.154354,1428.964910 1773.987636,1430.193076 1772.736966,1431.028654 1771.968473,1429.888989 1769.834980,1431.315039 1768.955375,1430.009402 1770.693411,1428.839633 1767.350959,1423.893734"/>
    <poly id="179891898" type="building" color="255,230,230" fill="1" layer="-1.00" shape="1819.834561,1523.478233 1805.304891,1533.204210 1808.434351,1537.840323 1810.310321,1536.581419 1811.384343,1538.174743 1810.363578,1538.854353 1811.020983,1539.839136 1815.539297,1540.711930 1820.891382,1537.135684 1822.687594,1539.802294 1820.820838,1541.061166 1823.765071,1545.409573 1825.733020,1544.094940 1827.631053,1546.905377 1822.159558,1550.603968 1821.362893,1555.130511 1821.955474,1556.015704 1822.930233,1555.358416 1823.976429,1556.896387 1822.183224,1558.099586 1825.331168,1562.757822 1840.017158,1552.931587 1836.748894,1548.107401 1834.753368,1549.444295 1833.781210,1548.005883 1835.831923,1546.635550 1835.081982,1545.529087 1836.452161,1544.604434 1837.229888,1545.755163 1842.140551,1542.468618 1836.242777,1533.738558 1830.520959,1525.285154 1825.637867,1528.549441 1826.471133,1529.777612 1825.229687,1530.613154 1824.461208,1529.473485 1822.327730,1530.899523 1821.438926,1529.593910 1823.186200,1528.435210 1819.834561,1523.478233"/>
    <poly id="179891901" type="building" color="255,230,230" fill="1" layer="-1.00" shape="1740.770205,1536.424323 1755.225695,1526.576508 1752.059449,1521.973794 1750.192734,1523.243768 1749.109519,1521.661569 1750.121032,1520.970893 1749.454438,1519.997232 1744.926998,1519.157764 1739.611933,1522.778289 1737.778868,1520.122900 1739.645618,1518.864011 1736.664511,1514.526835 1734.705853,1515.863634 1732.780175,1513.064391 1738.223871,1509.321484 1738.983603,1504.783962 1738.381831,1503.909892 1737.407108,1504.578276 1736.351711,1503.051432 1738.135666,1501.837158 1734.941617,1497.190185 1720.348187,1507.138262 1723.653352,1511.951203 1725.639584,1510.592138 1726.620943,1512.019421 1724.588739,1513.411896 1725.347876,1514.507233 1723.986953,1515.442962 1723.199995,1514.292271 1718.317144,1517.623143 1724.288585,1526.297455 1730.074901,1534.717326 1734.930172,1531.408724 1734.087678,1530.180591 1735.319865,1529.333978 1736.106786,1530.473581 1738.221751,1529.025405 1739.119746,1530.319893 1737.381768,1531.500756 1740.770205,1536.424323"/>
    <poly id="179891905" type="building" color="255,230,230" fill="1" layer="-1.00" shape="1819.162815,1585.075875 1833.618311,1575.228181 1830.452119,1570.625440 1828.585403,1571.895399 1827.502207,1570.313191 1828.513720,1569.622523 1827.847138,1568.648857 1823.319729,1567.809351 1818.004662,1571.429831 1816.171628,1568.774427 1818.038343,1567.504466 1815.057323,1563.178353 1813.098665,1564.515136 1811.173020,1561.715877 1816.616684,1557.961926 1817.376484,1553.435500 1816.774722,1552.561424 1815.799999,1553.229800 1814.753801,1551.691830 1816.528541,1550.477600 1813.334582,1545.841688 1798.741146,1555.789644 1802.046219,1560.591525 1804.032487,1559.243565 1805.013829,1560.670856 1802.981590,1562.052226 1803.740748,1563.158658 1802.379790,1564.083287 1801.592880,1562.943678 1796.710028,1566.274509 1802.681366,1574.948871 1808.467546,1583.357702 1813.322818,1580.049140 1812.480375,1578.832088 1813.721778,1577.985456 1814.499434,1579.114007 1816.614435,1577.676936 1817.512415,1578.971432 1815.783652,1580.152251 1819.162815,1585.075875"/>
    <poly id="179891907" type="building" color="255,230,230" fill="1" layer="-1.00" shape="1749.819924,1460.773452 1764.275541,1450.925653 1761.109275,1446.322936 1759.242543,1447.592909 1758.150106,1446.010738 1759.170843,1445.320034 1758.504245,1444.346372 1753.976769,1443.506899 1748.652442,1447.127447 1746.828581,1444.472028 1748.695347,1443.213141 1745.714220,1438.875963 1743.755546,1440.212759 1741.829855,1437.413515 1747.273599,1433.670613 1748.033342,1429.133093 1747.431566,1428.259022 1746.456835,1428.927405 1745.401431,1427.400560 1747.185401,1426.186289 1743.991331,1421.539313 1729.397773,1431.487374 1732.702959,1436.300318 1734.689210,1434.941255 1735.670575,1436.368538 1733.638353,1437.761011 1734.397495,1438.856349 1733.027345,1439.792105 1732.249597,1438.641385 1727.366703,1441.972252 1733.328968,1450.646598 1739.124536,1459.066445 1743.970634,1455.757877 1743.128135,1454.529743 1744.369548,1453.683102 1745.147259,1454.822735 1747.271457,1453.374532 1748.160243,1454.669050 1746.431466,1455.849882 1749.819924,1460.773452"/>
    <poly id="181000912" type="building" color="255,230,230" fill="1" layer="-1.00" shape="1784.265024,1398.780690 1781.903931,1395.262074 1779.374970,1396.944403 1777.300922,1393.857325 1779.250536,1392.564918 1777.370924,1389.765521 1775.019112,1386.269055 1772.260253,1388.107349 1766.519579,1379.565337 1769.499120,1377.571107 1767.304737,1374.318088 1764.279153,1376.323552 1758.566251,1367.825811 1761.490642,1365.876106 1759.212858,1362.479204 1756.233279,1364.462349 1750.575901,1356.042055 1753.822170,1353.880652 1752.600002,1352.077126 1749.424096,1347.352473 1747.171031,1348.856524 1740.217354,1338.510975 1749.937746,1332.026816 1751.997710,1330.656436 1750.451451,1328.366052 1758.755683,1322.839978 1760.246367,1325.041834 1764.743368,1322.055943 1767.382688,1320.295644 1765.845647,1318.005227 1774.416588,1312.300911 1775.925841,1314.547064 1779.006601,1312.497076 1787.641923,1306.748215 1794.336344,1316.717616 1792.212002,1318.132543 1795.906420,1323.631753 1797.100831,1325.402107 1800.025243,1323.452414 1805.441870,1331.518672 1802.655378,1333.368133 1805.099803,1337.008461 1808.005852,1335.081006 1813.450183,1343.169358 1810.433829,1345.185866 1812.906000,1348.859374 1815.775254,1346.954214 1821.247393,1355.097924 1818.635649,1356.835945 1820.978201,1360.321363 1822.376289,1362.390461 1824.123595,1361.231761 1826.669830,1365.015922 1824.297201,1366.597950 1826.741609,1370.238284 1818.354615,1375.820001 1816.039817,1372.367761 1813.630400,1373.972085 1810.639681,1369.512945 1807.250837,1364.467384 1805.089712,1365.904602 1799.432379,1357.484279 1802.531526,1355.423152 1800.392653,1352.236479 1797.385451,1354.230786 1791.709568,1345.777261 1794.808717,1343.716132 1792.299500,1339.987304 1789.237143,1342.026142 1783.737147,1333.827097 1786.744353,1331.832785 1784.688830,1328.778912 1776.706465,1334.093267 1774.752766,1331.183222 1771.285802,1333.500552 1767.726825,1335.862528 1769.754601,1338.883220 1761.753857,1344.208735 1763.809384,1347.262603 1766.742998,1345.312871 1772.215216,1353.467641 1769.410375,1355.339346 1771.864093,1359.001813 1774.687364,1357.130051 1780.150318,1365.273766 1777.216708,1367.223494 1779.790712,1371.040819 1782.687529,1369.113385 1788.270761,1377.411961 1786.220018,1378.782304 1789.303320,1383.374203 1792.229185,1387.722658 1789.783019,1389.360369 1792.449657,1393.332641 1784.265024,1398.780690"/>
    <poly id="402206810" type="building" color="255,230,230" fill="1" layer="-1.00" shape="1086.111086,2193.007650 1113.595404,2206.202551 1118.866463,2194.864332 1091.141747,2181.426251 1086.111086,2193.007650"/>
    <poly id="402206901" type="building" color="255,230,230" fill="1" layer="-1.00" shape="1272.696358,2139.869190 1275.108148,2141.957125 1307.663512,2121.671738 1306.157812,2114.790730 1308.005243,2113.310048 1315.320332,2118.575678 1342.330021,2101.634722 1340.330303,2095.864126 1320.812459,2098.510361 1320.309306,2096.782199 1310.312730,2100.140802 1305.970440,2093.756793 1307.938059,2092.397697 1293.286695,2069.558490 1272.567655,2082.664969 1286.850066,2105.383359 1288.829248,2104.756050 1293.169977,2110.652171 1287.007038,2116.947970 1282.580529,2121.630384 1278.271341,2128.408115 1275.568036,2133.096079 1274.225343,2136.792808 1272.696358,2139.869190"/>
    <poly id="402206955" type="building" color="255,230,230" fill="1" layer="-1.00" shape="1070.746436,2308.575538 1100.740929,2323.037429 1115.523507,2292.385847 1085.704879,2278.189460 1070.746436,2308.575538"/>
    <poly id="402206956" type="building" color="255,230,230" fill="1" layer="-1.00" shape="1080.482378,2338.659905 1093.633676,2344.970952 1098.998138,2334.053773 1085.477529,2327.522148 1080.482378,2338.659905"/>
    <poly id="402206959" type="building" color="255,230,230" fill="1" layer="-1.00" shape="1100.873995,2355.625584 1114.986470,2359.982006 1117.661233,2352.211530 1103.318133,2347.778232 1100.873995,2355.625584"/>
    <poly id="402207471" type="building" color="255,230,230" fill="1" layer="-1.00" shape="1194.340199,2376.302797 1202.580524,2379.924283 1213.748397,2356.979807 1205.562665,2353.147456 1199.896156,2364.730847 1195.762004,2362.870252 1192.969525,2368.445596 1197.444612,2370.305091 1194.340199,2376.302797"/>
    <poly id="402207472" type="building" color="255,230,230" fill="1" layer="-1.00" shape="1261.723013,2369.443821 1262.921338,2366.712237 1261.951922,2366.127675 1264.516826,2361.406885 1275.185336,2366.506458 1273.699918,2371.656218 1271.817730,2370.908266 1270.795548,2373.971931 1261.723013,2369.443821"/>
    <poly id="402207473" type="building" color="255,230,230" fill="1" layer="-1.00" shape="1270.906213,2041.698980 1292.053716,2029.988249 1287.595849,2022.063344 1288.837574,2021.349700 1286.695038,2017.032144 1282.535337,2018.730942 1276.644744,2006.574912 1268.153893,2011.104078 1267.189803,2009.321960 1263.963870,2003.377912 1263.204682,2002.271523 1262.485279,2002.074248 1261.932386,2002.076027 1261.315845,2002.344130 1260.985893,2002.899608 1260.886492,2003.509785 1261.092144,2004.418365 1253.136047,2009.034531 1270.906213,2041.698980"/>
    <poly id="402207474" type="building" color="255,230,230" fill="1" layer="-1.00" shape="1242.175106,2001.962203 1245.251974,2007.396661 1249.253593,2005.254822 1250.207829,2006.837380 1268.394291,1997.032231 1263.174060,1987.025186 1244.619274,1996.920238 1246.222230,1999.642804 1242.175106,2001.962203"/>
    <poly id="402207920" type="amenity" color="237,199,199" fill="1" layer="-1.00" shape="1297.472061,1938.215020 1282.320510,1914.656700 1284.940075,1912.563675 1283.503591,1910.029069 1287.513548,1907.598925 1289.051967,1910.310617 1293.356057,1907.646675 1308.553523,1931.160512 1297.472061,1938.215020"/>
    <poly id="402207920#1" type="building" color="255,230,230" fill="1" layer="-1.00" shape="1297.472061,1938.215020 1282.320510,1914.656700 1284.940075,1912.563675 1283.503591,1910.029069 1287.513548,1907.598925 1289.051967,1910.310617 1293.356057,1907.646675 1308.553523,1931.160512 1297.472061,1938.215020"/>
    <poly id="402207921" type="building" color="255,230,230" fill="1" layer="-1.00" shape="1340.550226,1951.903812 1356.652283,1941.473492 1350.780203,1932.200319 1334.420295,1942.686919 1340.550226,1951.903812"/>
    <poly id="402207922" type="building" color="255,230,230" fill="1" layer="-1.00" shape="1336.001704,1938.701138 1332.038203,1932.637463 1345.161966,1924.500877 1348.868653,1930.942384 1336.001704,1938.701138"/>
    <poly id="402207923" type="building" color="255,230,230" fill="1" layer="-1.00" shape="1360.880281,1935.195034 1387.025939,1918.744875 1347.023670,1855.647563 1317.383998,1874.537393 1320.374403,1878.874409 1323.731043,1876.734675 1360.880281,1935.195034"/>
    <poly id="402207924" type="building" color="255,230,230" fill="1" layer="-1.00" shape="1370.644793,1859.386191 1390.869198,1847.013352 1383.290724,1834.374780 1399.329450,1824.233036 1383.306181,1798.936484 1388.979666,1795.103927 1376.797968,1775.217265 1347.937814,1793.028928 1360.105997,1811.562823 1345.925567,1820.711812 1370.644793,1859.386191"/>
    <poly id="402207925" type="building" color="255,230,230" fill="1" layer="-1.00" shape="1415.497528,1920.705032 1388.470824,1877.890898 1438.866444,1845.651087 1466.409578,1888.630036 1415.497528,1920.705032"/>
    <poly id="402208817" type="building" color="255,230,230" fill="1" layer="-1.00" shape="1442.568513,2026.423109 1445.950552,2032.233658 1443.476544,2033.738493 1444.903255,2036.117918 1377.081149,2079.202488 1375.654711,2076.911779 1373.088578,2078.416928 1369.976868,2073.581309 1364.669237,2076.503466 1360.391086,2069.997255 1362.956650,2068.314692 1352.892588,2053.521891 1339.332613,2031.921005 1345.072008,2028.576093 1340.586433,2020.617987 1356.477355,2010.476638 1369.574196,2031.336115 1372.756599,2029.474164 1387.272272,2053.145550 1430.247397,2026.196403 1427.310782,2021.360206 1435.532765,2016.299805 1437.400659,2018.322992 1442.568513,2026.423109"/>
    <poly id="402208818" type="building" color="255,230,230" fill="1" layer="-1.00" shape="1385.415181,2028.613058 1418.835422,2007.715437 1401.068321,1978.743114 1396.009571,1981.708808 1392.658432,1976.929391 1364.049238,1995.228098 1382.063235,2023.578616 1385.415181,2028.613058"/>
    <poly id="402208819" type="building" color="255,230,230" fill="1" layer="-1.00" shape="1640.653777,2174.552490 1629.873719,2157.555096 1639.998277,2150.958638 1651.057477,2168.808957 1640.653777,2174.552490"/>
    <poly id="402208820" type="building" color="255,230,230" fill="1" layer="-1.00" shape="1629.849525,2065.865903 1628.794066,2064.305806 1608.534342,2077.110695 1605.849174,2073.072001 1610.087751,2070.086852 1602.946339,2058.544456 1597.998218,2061.531867 1594.971563,2057.327938 1595.917691,2056.382421 1596.744380,2055.548167 1597.165616,2054.715203 1598.846348,2055.851952 1600.305897,2054.084266 1601.443209,2052.406312 1602.894469,2048.032900 1603.209687,2045.736616 1603.719757,2043.861069 1589.589102,2042.553257 1588.253084,2048.389962 1575.579897,2056.236479 1561.738744,2064.807474 1563.137211,2067.009594 1560.791742,2068.369840 1564.366921,2074.091110 1551.210068,2083.402859 1553.840003,2087.452801 1549.867515,2090.071214 1551.979442,2093.501862 1545.321363,2097.736641 1550.970440,2106.522759 1557.666080,2102.509630 1559.130459,2105.155072 1562.808741,2102.748278 1564.253841,2105.127662 1597.675716,2084.707469 1603.033308,2091.676061 1604.918355,2090.417085 1608.074530,2094.786930 1636.582769,2076.566904 1634.898063,2074.177182 1629.849525,2065.865903"/>
    <poly id="402208821" type="building" color="255,230,230" fill="1" layer="-1.00" shape="1676.160256,2073.502821 1684.621745,2085.817265 1702.921435,2073.850379 1694.734435,2060.914102 1676.160256,2073.502821"/>
    <poly id="402208822" type="building" color="255,230,230" fill="1" layer="-1.00" shape="1703.543296,2072.351485 1715.654603,2064.551275 1707.903205,2052.400877 1695.349858,2060.291205 1703.543296,2072.351485"/>
    <poly id="402208823" type="building" color="255,230,230" fill="1" layer="-1.00" shape="1672.059440,1971.824925 1651.586094,1981.281725 1642.831086,1986.842602 1634.504683,1973.585260 1614.897248,1985.833643 1601.728302,1965.328886 1639.343822,1942.079079 1650.270944,1958.887513 1660.497519,1952.423817 1672.059440,1971.824925"/>
    <poly id="402210446" type="building" color="255,230,230" fill="1" layer="-1.00" shape="1514.106707,1923.239596 1521.736480,1923.148727 1523.378708,1920.870385 1525.783727,1917.946488 1529.011355,1915.796150 1540.619469,1909.117241 1553.967137,1930.696911 1555.678115,1929.748953 1564.792630,1938.690362 1573.731865,1933.106649 1584.900045,1950.335596 1573.808976,1957.323277 1574.968750,1962.697416 1575.047729,1967.243372 1575.131370,1973.252971 1574.450985,1979.520034 1573.249058,1981.164932 1572.743863,1981.676603 1584.747151,2000.732462 1582.405616,2003.334581 1580.631345,2004.659739 1578.725101,2005.053898 1576.371282,2003.797325 1574.079142,2001.653491 1573.181450,2000.447723 1572.038205,2000.262862 1569.549549,1997.177148 1568.094409,1997.436814 1568.669758,1998.699049 1564.550532,2001.550777 1546.869500,1976.314670 1544.834631,1976.831218 1542.104580,1976.074826 1541.142024,1974.758385 1539.748523,1974.119705 1537.834815,1972.174263 1536.685909,1970.215294 1534.706246,1967.815442 1532.350786,1966.048822 1528.849493,1963.287909 1528.462381,1960.372917 1529.024831,1957.587957 1530.163062,1956.198288 1532.077198,1958.276787 1535.563008,1956.181070 1526.942149,1943.113263 1515.005581,1924.811269 1514.106707,1923.239596"/>
    <poly id="402210448" type="building" color="255,230,230" fill="1" layer="-1.00" shape="1486.203207,1900.054296 1498.825734,1919.595955 1532.245165,1898.244129 1524.355134,1886.083236 1534.066229,1879.798461 1541.533353,1892.271183 1568.267261,1875.209800 1555.441419,1855.458021 1551.265783,1857.977284 1553.052903,1860.677137 1533.726687,1871.572016 1525.732619,1858.579830 1508.397863,1869.778883 1516.920207,1883.711876 1491.648588,1899.826230 1490.378842,1897.546092 1486.203207,1900.054296"/>
    <poly id="402210450" type="building" color="255,230,230" fill="1" layer="-1.00" shape="1496.714236,1789.303947 1480.359216,1763.941763 1462.188975,1735.780066 1464.534514,1734.419796 1455.464932,1719.446300 1465.820367,1712.893278 1474.146846,1726.028499 1482.286533,1721.079290 1491.232379,1734.833493 1499.230490,1725.948401 1501.102922,1729.379801 1509.982591,1725.293142 1503.778997,1716.087465 1498.715755,1717.700342 1497.956762,1713.766415 1487.232700,1720.320578 1479.043739,1712.729062 1476.308760,1707.570646 1491.116120,1698.419856 1493.711850,1700.374200 1498.154145,1697.654472 1520.640043,1732.521986 1509.301917,1743.014433 1510.664785,1745.593660 1493.999519,1750.071084 1502.196525,1763.084771 1505.800066,1768.983340 1515.174945,1764.152189 1521.140885,1773.979578 1496.714236,1789.303947"/>
    <poly id="402212136" type="building" color="255,230,230" fill="1" layer="-1.00" shape="1597.339435,1903.714013 1574.436519,1830.271409 1616.800259,1897.475927 1597.339435,1903.714013"/>
    <poly id="402212137" type="amenity" color="237,199,199" fill="1" layer="-1.00" shape="1623.092486,1894.051811 1590.381814,1842.828062 1595.917730,1839.184569 1597.405055,1840.344109 1618.917046,1827.069515 1622.201467,1831.172837 1628.353259,1827.039520 1624.583630,1821.041638 1637.091623,1813.295513 1649.351288,1805.694341 1653.100998,1811.226587 1659.575521,1807.147708 1684.307834,1847.441750 1678.459599,1851.407742 1682.443836,1858.258765 1671.802678,1864.790279 1659.395668,1872.402979 1655.240173,1866.761136 1648.183669,1870.376158 1652.859609,1877.402384 1637.245088,1887.697583 1623.092486,1894.051811"/>
    <poly id="402212137#1" type="building" color="255,230,230" fill="1" layer="-1.00" shape="1623.092486,1894.051811 1590.381814,1842.828062 1595.917730,1839.184569 1597.405055,1840.344109 1618.917046,1827.069515 1622.201467,1831.172837 1628.353259,1827.039520 1624.583630,1821.041638 1637.091623,1813.295513 1649.351288,1805.694341 1653.100998,1811.226587 1659.575521,1807.147708 1684.307834,1847.441750 1678.459599,1851.407742 1682.443836,1858.258765 1671.802678,1864.790279 1659.395668,1872.402979 1655.240173,1866.761136 1648.183669,1870.376158 1652.859609,1877.402384 1637.245088,1887.697583 1623.092486,1894.051811"/>
    <poly id="402212138" type="building" color="255,230,230" fill="1" layer="-1.00" shape="1600.264548,1641.344230 1595.994241,1634.416535 1590.845305,1626.493690 1588.776508,1622.164745 1586.771157,1617.502950 1586.396059,1612.569847 1586.651732,1606.038021 1588.177314,1598.936650 1591.201808,1593.726610 1594.222981,1590.368329 1599.959351,1585.959111 1608.659771,1580.509257 1610.215451,1582.866119 1612.247834,1581.540148 1617.062771,1588.754415 1618.341404,1588.029610 1622.925739,1595.178082 1624.103427,1594.586659 1628.262830,1601.414924 1629.679973,1600.778387 1633.847739,1607.340509 1640.673033,1603.404652 1622.629555,1574.477157 1624.368356,1573.562390 1623.791369,1571.790095 1624.173407,1570.214341 1624.391297,1569.182436 1624.949730,1568.016389 1626.006741,1567.148142 1628.015150,1566.975434 1629.750376,1567.834808 1631.001383,1570.015228 1659.498279,1614.466439 1673.554811,1635.777901 1674.074347,1636.873994 1674.244655,1638.270581 1674.018356,1639.557542 1673.524427,1640.723382 1673.046291,1641.057548 1671.453463,1641.506135 1670.126364,1641.477082 1668.705352,1640.893911 1667.826949,1639.965281 1667.011961,1638.692713 1664.188198,1640.376010 1647.149513,1614.405856 1633.998044,1622.741688 1636.832602,1627.356505 1609.529090,1645.228936 1604.990916,1638.102499 1600.264548,1641.344230"/>