<?xml version="1.0" encoding="UTF-8"?>

<!-- generated on 2021-10-07 21:09:06 by Eclipse SUMO netconvert Version 1.10.0
<configuration xmlns:xsi="http://www.w3.org/2001/XMLSchema-instance" xsi:noNamespaceSchemaLocation="http://sumo.dlr.de/xsd/netconvertConfiguration.xsd">

    <input>
        <sumo-net-file value="csusb.net.xml"/>
    </input>

    <output>
        <plain-output-prefix value="csusb"/>
    </output>

    <processing>
        <geometry.min-radius.fix.railways value="false"/>
        <geometry.max-grade.fix value="false"/>
        <offset.disable-normalization value="true"/>
        <lefthand value="false"/>
    </processing>

    <junctions>
        <no-internal-links value="true"/>
        <no-turnarounds value="true"/>
        <junctions.corner-detail value="5"/>
        <junctions.limit-turn-speed value="5.5"/>
        <rectangular-lane-cut value="false"/>
    </junctions>

    <pedestrian>
        <walkingareas value="false"/>
    </pedestrian>

    <report>
        <aggregate-warnings value="5"/>
    </report>

</configuration>
-->

<connections version="1.9" xmlns:xsi="http://www.w3.org/2001/XMLSchema-instance" xsi:noNamespaceSchemaLocation="http://sumo.dlr.de/xsd/connections_file.xsd">
    <connection from="-162155429#1" to="-45101501#1" fromLane="0" toLane="0"/>
    <connection from="-162155429#1" to="45101501#3" fromLane="0" toLane="1"/>
    <connection from="-162155429#1" to="162155429#0" fromLane="0" toLane="0"/>

    <connection from="-162155429#10" to="-162155429#9" fromLane="0" toLane="0"/>
    <connection from="-162155429#10" to="162155429#10" fromLane="0" toLane="0"/>

    <connection from="-162155429#11" to="753401486" fromLane="0" toLane="0"/>
    <connection from="-162155429#11" to="-162155429#10" fromLane="0" toLane="0"/>
    <connection from="-162155429#11" to="162155429#11" fromLane="0" toLane="0"/>

    <connection from="-162155429#12" to="-162155429#11" fromLane="0" toLane="0"/>
    <connection from="-162155429#12" to="162155429#12" fromLane="0" toLane="0"/>

    <connection from="-162155429#13" to="753401484" fromLane="0" toLane="0"/>
    <connection from="-162155429#13" to="-162155429#12" fromLane="0" toLane="0"/>
    <connection from="-162155429#13" to="162155429#13" fromLane="0" toLane="0"/>

    <connection from="-162155429#14" to="-162155429#13" fromLane="0" toLane="0"/>
    <connection from="-162155429#14" to="162155429#14" fromLane="0" toLane="0"/>

    <connection from="-162155429#15" to="-162155429#14" fromLane="0" toLane="0"/>
    <connection from="-162155429#15" to="162155429#15" fromLane="0" toLane="0"/>

    <connection from="-162155429#16" to="753401480" fromLane="0" toLane="0"/>
    <connection from="-162155429#16" to="-162155429#15" fromLane="0" toLane="0"/>
    <connection from="-162155429#16" to="162155429#16" fromLane="0" toLane="0"/>

    <connection from="-162155429#17" to="-162155429#16" fromLane="0" toLane="0"/>
    <connection from="-162155429#17" to="162155429#17" fromLane="0" toLane="0"/>

    <connection from="-162155429#2" to="-162155429#1" fromLane="0" toLane="0"/>
    <connection from="-162155429#2" to="162155429#2" fromLane="0" toLane="0"/>

    <connection from="-162155429#3" to="-162155429#2" fromLane="0" toLane="0"/>
    <connection from="-162155429#3" to="162155429#3" fromLane="0" toLane="0"/>

    <connection from="-162155429#4" to="753401493" fromLane="0" toLane="0"/>
    <connection from="-162155429#4" to="-162155429#3" fromLane="0" toLane="0"/>
    <connection from="-162155429#4" to="162155429#4" fromLane="0" toLane="0"/>

    <connection from="-162155429#5" to="-162155429#4" fromLane="0" toLane="0"/>
    <connection from="-162155429#5" to="162155429#5" fromLane="0" toLane="0"/>

    <connection from="-162155429#6" to="753401491" fromLane="0" toLane="0"/>
    <connection from="-162155429#6" to="-162155429#5" fromLane="0" toLane="0"/>
    <connection from="-162155429#6" to="162155429#6" fromLane="0" toLane="0"/>

    <connection from="-162155429#7" to="-162155429#6" fromLane="0" toLane="0"/>
    <connection from="-162155429#7" to="162155429#7" fromLane="0" toLane="0"/>

    <connection from="-162155429#8" to="753401489" fromLane="0" toLane="0"/>
    <connection from="-162155429#8" to="-162155429#7" fromLane="0" toLane="0"/>
    <connection from="-162155429#8" to="162155429#8" fromLane="0" toLane="0"/>

    <connection from="-162155429#9" to="-162155429#8" fromLane="0" toLane="0"/>
    <connection from="-162155429#9" to="162155429#9" fromLane="0" toLane="0"/>

    <connection from="-164423261#0" to="164423311#2" fromLane="0" toLane="0"/>
    <connection from="-164423261#0" to="45101482" fromLane="0" toLane="0"/>
    <connection from="-164423261#0" to="45101482" fromLane="1" toLane="1"/>
    <connection from="-164423261#0" to="-164423311#1" fromLane="1" toLane="0"/>
    <connection from="-164423261#0" to="164423261#0" fromLane="1" toLane="1"/>

    <connection from="-164423261#1" to="-164423261#0" fromLane="0" toLane="0"/>
    <connection from="-164423261#1" to="-164423261#0" fromLane="1" toLane="1"/>
    <connection from="-164423261#1" to="-551339908#1" fromLane="1" toLane="0"/>
    <connection from="-164423261#1" to="164423261#1" fromLane="1" toLane="1"/>

    <connection from="-164423265" to="164423277#1" fromLane="0" toLane="0"/>
    <connection from="-164423265" to="-164423277#0" fromLane="0" toLane="0"/>
    <connection from="-164423265" to="164423265" fromLane="0" toLane="0"/>

    <connection from="-164423273#0" to="936668811#1" fromLane="0" toLane="0"/>
    <connection from="-164423273#0" to="164423273#0" fromLane="0" toLane="0"/>

    <connection from="-164423273#1" to="164423277#0" fromLane="0" toLane="0"/>
    <connection from="-164423273#1" to="-164423273#0" fromLane="0" toLane="0"/>
    <connection from="-164423273#1" to="164423273#1" fromLane="0" toLane="0"/>

    <connection from="-164423273#2" to="-164423265" fromLane="0" toLane="0"/>
    <connection from="-164423273#2" to="-164423273#1" fromLane="0" toLane="0"/>
    <connection from="-164423273#2" to="164423273#2" fromLane="0" toLane="0"/>

    <connection from="-164423277#0" to="-164423273#0" fromLane="0" toLane="0"/>
    <connection from="-164423277#0" to="164423273#1" fromLane="0" toLane="0"/>
    <connection from="-164423277#0" to="164423277#0" fromLane="0" toLane="0"/>

    <connection from="-164423277#1" to="-164423277#0" fromLane="0" toLane="0"/>
    <connection from="-164423277#1" to="164423265" fromLane="0" toLane="0"/>
    <connection from="-164423277#1" to="164423277#1" fromLane="0" toLane="0"/>

    <connection from="-164423279" to="164423279" fromLane="0" toLane="0"/>

    <connection from="-164423282#0" to="164423282#0" fromLane="0" toLane="0"/>

    <connection from="-164423282#1" to="-164423282#0" fromLane="0" toLane="0"/>
    <connection from="-164423282#1" to="-164423286" fromLane="0" toLane="0"/>
    <connection from="-164423282#1" to="164423282#1" fromLane="0" toLane="0"/>

    <connection from="-164423286" to="-437684516#1" fromLane="0" toLane="0"/>
    <connection from="-164423286" to="-45017098#0" fromLane="0" toLane="0"/>
    <connection from="-164423286" to="45017098#1" fromLane="0" toLane="0"/>

    <connection from="-164423288" to="164423288" fromLane="0" toLane="0"/>

    <connection from="-164423307" to="-7522941#0" fromLane="0" toLane="0"/>
    <connection from="-164423307" to="7522941#1" fromLane="0" toLane="0"/>
    <connection from="-164423307" to="164423307" fromLane="0" toLane="0"/>

    <connection from="-164423308#1" to="164423308#0" fromLane="0" toLane="0"/>

    <connection from="-164423310#0" to="164423310#0" fromLane="0" toLane="0"/>

    <connection from="-164423310#1" to="-551339892#4" fromLane="0" toLane="0"/>
    <connection from="-164423310#1" to="-164423310#0" fromLane="0" toLane="0"/>
    <connection from="-164423310#1" to="164423310#1" fromLane="0" toLane="0"/>

    <connection from="-164423310#2" to="-164423310#1" fromLane="0" toLane="0"/>
    <connection from="-164423310#2" to="-164423288" fromLane="0" toLane="0"/>
    <connection from="-164423310#2" to="164423310#2" fromLane="0" toLane="0"/>

    <connection from="-164423310#4" to="-551339890" fromLane="0" toLane="0"/>
    <connection from="-164423310#4" to="-164423310#2" fromLane="0" toLane="0"/>
    <connection from="-164423310#4" to="164423310#3" fromLane="0" toLane="0"/>

    <connection from="-164423310#6" to="182417510#6" fromLane="0" toLane="0"/>
    <connection from="-164423310#6" to="-164423310#4" fromLane="0" toLane="0"/>
    <connection from="-164423310#6" to="164423259#1" fromLane="0" toLane="1"/>
    <connection from="-164423310#6" to="164423310#6" fromLane="0" toLane="0"/>

    <connection from="-164423311#1" to="164423311#0" fromLane="0" toLane="0"/>

    <connection from="-164423311#2" to="45101482" fromLane="0" toLane="0"/>
    <connection from="-164423311#2" to="-164423311#1" fromLane="0" toLane="0"/>
    <connection from="-164423311#2" to="164423261#0" fromLane="0" toLane="1"/>
    <connection from="-164423311#2" to="164423311#2" fromLane="0" toLane="0"/>

    <connection from="-164423321" to="164423321" fromLane="0" toLane="0"/>

    <connection from="-165392477#0" to="165392477#0" fromLane="0" toLane="0"/>

    <connection from="-165392477#1" to="-165392477#0" fromLane="0" toLane="0"/>
    <connection from="-165392477#1" to="868516471" fromLane="0" toLane="0"/>
    <connection from="-165392477#1" to="165392477#1" fromLane="0" toLane="0"/>

    <connection from="-165392477#2" to="-45101518#0" fromLane="0" toLane="0"/>
    <connection from="-165392477#2" to="-165392477#1" fromLane="0" toLane="0"/>
    <connection from="-165392477#2" to="45101518#1" fromLane="0" toLane="0"/>
    <connection from="-165392477#2" to="165392477#2" fromLane="0" toLane="0"/>

    <connection from="-165392488#1" to="551339891#0" fromLane="0" toLane="0"/>
    <connection from="-165392488#1" to="-551339903" fromLane="0" toLane="0"/>
    <connection from="-165392488#1" to="165392488#0" fromLane="0" toLane="0"/>

    <connection from="-165392488#2" to="-165392488#1" fromLane="0" toLane="0"/>
    <connection from="-165392488#2" to="-551339917#2" fromLane="0" toLane="0"/>
    <connection from="-165392488#2" to="165392488#2" fromLane="0" toLane="0"/>

    <connection from="-165392488#4" to="-165392488#2" fromLane="0" toLane="0"/>
    <connection from="-165392488#4" to="846797565#0" fromLane="0" toLane="0"/>
    <connection from="-165392488#4" to="165392488#3" fromLane="0" toLane="0"/>

    <connection from="-165392488#5" to="-165392488#4" fromLane="0" toLane="0"/>
    <connection from="-165392488#5" to="-846797566#2" fromLane="0" toLane="0"/>
    <connection from="-165392488#5" to="165392488#5" fromLane="0" toLane="0"/>

    <connection from="-165392493#1" to="165392493#0" fromLane="0" toLane="0"/>

    <connection from="-165392493#2" to="-165392493#1" fromLane="0" toLane="0"/>
    <connection from="-165392493#2" to="165392484" fromLane="0" toLane="0"/>
    <connection from="-165392493#2" to="165392493#2" fromLane="0" toLane="0"/>

    <connection from="-165392494#0" to="165392494#0" fromLane="0" toLane="0"/>

    <connection from="-165392494#1" to="-165392494#0" fromLane="0" toLane="0"/>
    <connection from="-165392494#1" to="165392494#1" fromLane="0" toLane="0"/>

    <connection from="-182417506#0" to="182417506#0" fromLane="0" toLane="0"/>

    <connection from="-182417506#1" to="182417518" fromLane="0" toLane="0"/>
    <connection from="-182417506#1" to="-182417506#0" fromLane="0" toLane="0"/>
    <connection from="-182417506#1" to="780066804" fromLane="0" toLane="0"/>
    <connection from="-182417506#1" to="182417506#1" fromLane="0" toLane="0"/>

    <connection from="-182417506#7" to="-182417506#1" fromLane="0" toLane="0"/>
    <connection from="-182417506#7" to="182417506#2" fromLane="0" toLane="0"/>

    <connection from="-182417506#8" to="-182417506#7" fromLane="0" toLane="0"/>
    <connection from="-182417506#8" to="551339921" fromLane="0" toLane="0"/>
    <connection from="-182417506#8" to="182417506#8" fromLane="0" toLane="0"/>

    <connection from="-182417518" to="-182417506#0" fromLane="0" toLane="0"/>
    <connection from="-182417518" to="780066804" fromLane="0" toLane="0"/>
    <connection from="-182417518" to="182417506#1" fromLane="0" toLane="0"/>
    <connection from="-182417518" to="182417518" fromLane="0" toLane="0"/>

    <connection from="-185937927#0" to="-185937928#4" fromLane="0" toLane="0"/>

    <connection from="-185937927#1" to="-185937927#0" fromLane="0" toLane="0"/>
    <connection from="-185937927#1" to="-185937927#0" fromLane="1" toLane="1"/>
    <connection from="-185937927#1" to="-681124605" fromLane="1" toLane="0"/>
    <connection from="-185937927#1" to="185937927#1" fromLane="1" toLane="1"/>

    <connection from="-185937927#2" to="-185937927#1" fromLane="0" toLane="0"/>
    <connection from="-185937927#2" to="-185937927#1" fromLane="1" toLane="1"/>
    <connection from="-185937927#2" to="353236243" fromLane="1" toLane="0"/>
    <connection from="-185937927#2" to="185937927#2" fromLane="1" toLane="1"/>

    <connection from="-185937928#0" to="305454122#0" fromLane="0" toLane="0"/>
    <connection from="-185937928#0" to="305454122#0" fromLane="0" toLane="1"/>

    <connection from="-185937928#1" to="-7235610#3" fromLane="0" toLane="0"/>
    <connection from="-185937928#1" to="-185937928#0" fromLane="0" toLane="0"/>
    <connection from="-185937928#1" to="185937928#1" fromLane="0" toLane="1"/>

    <connection from="-185937928#2" to="-185937928#1" fromLane="0" toLane="0"/>
    <connection from="-185937928#2" to="884698344" fromLane="0" toLane="0"/>
    <connection from="-185937928#2" to="185937928#2" fromLane="0" toLane="1"/>

    <connection from="-185937928#3" to="-185937928#2" fromLane="0" toLane="0"/>
    <connection from="-185937928#3" to="681124605" fromLane="0" toLane="0"/>
    <connection from="-185937928#3" to="185937928#3" fromLane="0" toLane="1"/>

    <connection from="-185937928#4" to="-7344873" fromLane="0" toLane="0"/>
    <connection from="-185937928#4" to="-185937928#3" fromLane="0" toLane="0"/>
    <connection from="-185937928#4" to="185937928#4" fromLane="0" toLane="1"/>

    <connection from="-245008167#0" to="936668811#2" fromLane="0" toLane="0"/>
    <connection from="-245008167#0" to="-305454136#4" fromLane="0" toLane="0"/>
    <connection from="-245008167#0" to="425424824#4" fromLane="0" toLane="1"/>
    <connection from="-245008167#0" to="245008167#0" fromLane="0" toLane="0"/>

    <connection from="-245008167#1" to="-245008167#0" fromLane="0" toLane="0"/>
    <connection from="-245008167#1" to="-7234274#1" fromLane="0" toLane="0"/>
    <connection from="-245008167#1" to="245008167#1" fromLane="0" toLane="0"/>

    <connection from="-305454118#0" to="-305454136#0" fromLane="0" toLane="0"/>
    <connection from="-305454118#0" to="-7402022" fromLane="0" toLane="0"/>
    <connection from="-305454118#0" to="305454136#1" fromLane="0" toLane="0"/>
    <connection from="-305454118#0" to="305454118#0" fromLane="0" toLane="0"/>

    <connection from="-305454118#1" to="-305454118#0" fromLane="0" toLane="0"/>
    <connection from="-305454118#1" to="917247982" fromLane="0" toLane="0"/>
    <connection from="-305454118#1" to="305454118#1" fromLane="0" toLane="0"/>

    <connection from="-305454118#2" to="-7349902#1" fromLane="0" toLane="0"/>
    <connection from="-305454118#2" to="-305454118#1" fromLane="0" toLane="0"/>
    <connection from="-305454118#2" to="305454118#2" fromLane="0" toLane="0"/>

    <connection from="-305454118#3" to="-305454118#2" fromLane="0" toLane="0"/>
    <connection from="-305454118#3" to="560846134" fromLane="0" toLane="0"/>
    <connection from="-305454118#3" to="305454118#3" fromLane="0" toLane="0"/>

    <connection from="-305454118#4" to="-164423321" fromLane="0" toLane="0"/>
    <connection from="-305454118#4" to="-305454118#3" fromLane="0" toLane="0"/>
    <connection from="-305454118#4" to="305454118#4" fromLane="0" toLane="0"/>

    <connection from="-305454118#5" to="-7256121#1" fromLane="0" toLane="0"/>
    <connection from="-305454118#5" to="-305454118#4" fromLane="0" toLane="0"/>
    <connection from="-305454118#5" to="305454118#5" fromLane="0" toLane="0"/>

    <connection from="-305454118#6" to="-305454118#5" fromLane="0" toLane="0"/>
    <connection from="-305454118#6" to="305454118#6" fromLane="0" toLane="0"/>

    <connection from="-305454118#7" to="885440798" fromLane="0" toLane="0"/>
    <connection from="-305454118#7" to="-305454118#6" fromLane="0" toLane="0"/>
    <connection from="-305454118#7" to="305454118#7" fromLane="0" toLane="0"/>

    <connection from="-305454118#8" to="-7389296" fromLane="0" toLane="0"/>
    <connection from="-305454118#8" to="-305454118#7" fromLane="0" toLane="0"/>
    <connection from="-305454118#8" to="560846114#0" fromLane="0" toLane="0"/>
    <connection from="-305454118#8" to="305454118#8" fromLane="0" toLane="0"/>

    <connection from="-305454118#9" to="7523941#0" fromLane="0" toLane="0"/>
    <connection from="-305454118#9" to="-305454118#8" fromLane="0" toLane="0"/>
    <connection from="-305454118#9" to="305454118#9" fromLane="0" toLane="0"/>

    <connection from="-305454122#0" to="185937928#0" fromLane="0" toLane="0"/>
    <connection from="-305454122#0" to="185937928#0" fromLane="1" toLane="1"/>

    <connection from="-305454122#1" to="-485990746#1" fromLane="0" toLane="0"/>
    <connection from="-305454122#1" to="-305454122#0" fromLane="0" toLane="0"/>
    <connection from="-305454122#1" to="-305454122#0" fromLane="1" toLane="1"/>
    <connection from="-305454122#1" to="-7435417#4" fromLane="1" toLane="0"/>
    <connection from="-305454122#1" to="305454122#1" fromLane="1" toLane="1"/>

    <connection from="-305454122#3" to="-485990747#6" fromLane="0" toLane="0"/>
    <connection from="-305454122#3" to="-305454122#1" fromLane="0" toLane="0"/>
    <connection from="-305454122#3" to="-305454122#1" fromLane="1" toLane="1"/>
    <connection from="-305454122#3" to="305454122#2" fromLane="1" toLane="1"/>

    <connection from="-305454129#0" to="305454129#0" fromLane="1" toLane="2"/>

    <connection from="-305454129#1" to="7522941#0" fromLane="0" toLane="0"/>
    <connection from="-305454129#1" to="-305454129#0" fromLane="0" toLane="0"/>
    <connection from="-305454129#1" to="-305454129#0" fromLane="1" toLane="1"/>
    <connection from="-305454129#1" to="305454129#1" fromLane="1" toLane="2"/>

    <connection from="-305454129#2" to="-7359997#1" fromLane="0" toLane="0"/>
    <connection from="-305454129#2" to="-305454129#1" fromLane="0" toLane="0"/>
    <connection from="-305454129#2" to="-305454129#1" fromLane="1" toLane="1"/>
    <connection from="-305454129#2" to="7359997#2" fromLane="1" toLane="0"/>
    <connection from="-305454129#2" to="305454129#2" fromLane="1" toLane="2"/>

    <connection from="-305454129#4" to="7402523" fromLane="0" toLane="0"/>
    <connection from="-305454129#4" to="-305454129#2" fromLane="0" toLane="0"/>
    <connection from="-305454129#4" to="-305454129#2" fromLane="1" toLane="1"/>
    <connection from="-305454129#4" to="7320918#0" fromLane="1" toLane="0"/>
    <connection from="-305454129#4" to="305454129#3" fromLane="1" toLane="2"/>

    <connection from="-305454136#0" to="305454136#0" fromLane="0" toLane="0"/>

    <connection from="-305454136#1" to="305454118#0" fromLane="0" toLane="0"/>
    <connection from="-305454136#1" to="-305454136#0" fromLane="0" toLane="0"/>
    <connection from="-305454136#1" to="-7402022" fromLane="0" toLane="0"/>
    <connection from="-305454136#1" to="305454136#1" fromLane="0" toLane="0"/>

    <connection from="-305454136#2" to="-560846126" fromLane="0" toLane="0"/>
    <connection from="-305454136#2" to="-305454136#1" fromLane="0" toLane="0"/>
    <connection from="-305454136#2" to="305454136#2" fromLane="0" toLane="0"/>

    <connection from="-305454136#3" to="-560846125" fromLane="0" toLane="0"/>
    <connection from="-305454136#3" to="-305454136#2" fromLane="0" toLane="0"/>
    <connection from="-305454136#3" to="305454136#3" fromLane="0" toLane="0"/>

    <connection from="-305454136#4" to="-305454136#3" fromLane="0" toLane="0"/>
    <connection from="-305454136#4" to="7274285" fromLane="0" toLane="0"/>
    <connection from="-305454136#4" to="305454136#4" fromLane="0" toLane="0"/>

    <connection from="-305454911#0" to="305454911#0" fromLane="1" toLane="1"/>

    <connection from="-305454911#1" to="7389380#3" fromLane="0" toLane="0"/>
    <connection from="-305454911#1" to="-305454911#0" fromLane="0" toLane="0"/>
    <connection from="-305454911#1" to="-305454911#0" fromLane="1" toLane="1"/>
    <connection from="-305454911#1" to="-7389380#2" fromLane="1" toLane="0"/>
    <connection from="-305454911#1" to="305454911#1" fromLane="1" toLane="1"/>

    <connection from="-305454911#2" to="-305454911#1" fromLane="0" toLane="0"/>
    <connection from="-305454911#2" to="-305454911#1" fromLane="1" toLane="1"/>
    <connection from="-305454911#2" to="-485990738" fromLane="1" toLane="0"/>
    <connection from="-305454911#2" to="305454911#2" fromLane="1" toLane="1"/>

    <connection from="-305454911#3" to="-305454911#2" fromLane="0" toLane="0"/>
    <connection from="-305454911#3" to="-305454911#2" fromLane="1" toLane="1"/>
    <connection from="-305454911#3" to="485990740#0" fromLane="1" toLane="0"/>
    <connection from="-305454911#3" to="305454911#3" fromLane="1" toLane="1"/>

    <connection from="-305454911#5" to="476735284#0" fromLane="0" toLane="0"/>
    <connection from="-305454911#5" to="-305454911#3" fromLane="0" toLane="0"/>
    <connection from="-305454911#5" to="-305454911#3" fromLane="1" toLane="1"/>
    <connection from="-305454911#5" to="305454911#4" fromLane="1" toLane="1"/>

    <connection from="-353236243" to="185937927#2" fromLane="0" toLane="0"/>
    <connection from="-353236243" to="-185937927#1" fromLane="0" toLane="1"/>
    <connection from="-353236243" to="353236243" fromLane="0" toLane="0"/>

    <connection from="-366207135" to="43783258#2" fromLane="0" toLane="0"/>
    <connection from="-366207135" to="366207135" fromLane="0" toLane="0"/>

    <connection from="-437684515" to="-45017096#0" fromLane="0" toLane="0"/>
    <connection from="-437684515" to="45017096#1" fromLane="0" toLane="0"/>
    <connection from="-437684515" to="437684515" fromLane="0" toLane="0"/>

    <connection from="-437684516#0" to="437684517#1" fromLane="0" toLane="0"/>
    <connection from="-437684516#0" to="-437684517#0" fromLane="0" toLane="0"/>
    <connection from="-437684516#0" to="437684518" fromLane="0" toLane="0"/>

    <connection from="-437684516#1" to="912727603#2" fromLane="0" toLane="0"/>
    <connection from="-437684516#1" to="-437684516#0" fromLane="0" toLane="0"/>
    <connection from="-437684516#1" to="-912727603#1" fromLane="0" toLane="0"/>
    <connection from="-437684516#1" to="437684516#1" fromLane="0" toLane="0"/>

    <connection from="-437684517#0" to="-912727603#0" fromLane="0" toLane="0"/>
    <connection from="-437684517#0" to="912727603#1" fromLane="0" toLane="0"/>
    <connection from="-437684517#0" to="437684517#0" fromLane="0" toLane="0"/>

    <connection from="-437684517#1" to="-437684517#0" fromLane="0" toLane="0"/>
    <connection from="-437684517#1" to="437684518" fromLane="0" toLane="0"/>
    <connection from="-437684517#1" to="437684517#1" fromLane="0" toLane="0"/>

    <connection from="-43783232" to="43783232" fromLane="0" toLane="0"/>

    <connection from="-43783233#0" to="724018871" fromLane="0" toLane="0"/>
    <connection from="-43783233#0" to="43783233#0" fromLane="0" toLane="0"/>

    <connection from="-43783247#0" to="45101456#2" fromLane="0" toLane="0"/>
    <connection from="-43783247#0" to="-45101456#1" fromLane="0" toLane="0"/>
    <connection from="-43783247#0" to="43783247#0" fromLane="0" toLane="0"/>

    <connection from="-43783247#1" to="-45101453#2" fromLane="0" toLane="0"/>
    <connection from="-43783247#1" to="-43783247#0" fromLane="0" toLane="0"/>
    <connection from="-43783247#1" to="45101453#3" fromLane="0" toLane="0"/>
    <connection from="-43783247#1" to="43783247#1" fromLane="0" toLane="0"/>

    <connection from="-43783247#2" to="43783250" fromLane="0" toLane="0"/>
    <connection from="-43783247#2" to="-43783247#1" fromLane="0" toLane="0"/>
    <connection from="-43783247#2" to="43783247#2" fromLane="0" toLane="0"/>

    <connection from="-43785041#0" to="526893731#1" fromLane="0" toLane="0"/>
    <connection from="-43785041#0" to="43785041#0" fromLane="0" toLane="0"/>

    <connection from="-43785041#1" to="-43785041#0" fromLane="0" toLane="0"/>
    <connection from="-43785041#1" to="615748551#2" fromLane="0" toLane="0"/>
    <connection from="-43785041#1" to="43785041#1" fromLane="0" toLane="0"/>

    <connection from="-43785041#10" to="615748573#1" fromLane="0" toLane="0"/>
    <connection from="-43785041#10" to="-43785041#9" fromLane="0" toLane="0"/>
    <connection from="-43785041#10" to="43785041#10" fromLane="0" toLane="0"/>

    <connection from="-43785041#11" to="-43785041#10" fromLane="0" toLane="0"/>
    <connection from="-43785041#11" to="518671098#3" fromLane="0" toLane="0"/>
    <connection from="-43785041#11" to="43785041#11" fromLane="0" toLane="0"/>

    <connection from="-43785041#12" to="518671098#1" fromLane="0" toLane="0"/>
    <connection from="-43785041#12" to="-43785041#11" fromLane="0" toLane="0"/>
    <connection from="-43785041#12" to="43785041#12" fromLane="0" toLane="0"/>

    <connection from="-43785041#2" to="615748559#1" fromLane="0" toLane="0"/>
    <connection from="-43785041#2" to="-43785041#1" fromLane="0" toLane="0"/>
    <connection from="-43785041#2" to="43785041#2" fromLane="0" toLane="0"/>

    <connection from="-43785041#3" to="-43785041#2" fromLane="0" toLane="0"/>
    <connection from="-43785041#3" to="615748561#2" fromLane="0" toLane="0"/>
    <connection from="-43785041#3" to="43785041#3" fromLane="0" toLane="0"/>

    <connection from="-43785041#4" to="615748562#1" fromLane="0" toLane="0"/>
    <connection from="-43785041#4" to="-43785041#3" fromLane="0" toLane="0"/>
    <connection from="-43785041#4" to="43785041#4" fromLane="0" toLane="0"/>

    <connection from="-43785041#5" to="-43785041#4" fromLane="0" toLane="0"/>
    <connection from="-43785041#5" to="615748567#2" fromLane="0" toLane="0"/>
    <connection from="-43785041#5" to="43785041#5" fromLane="0" toLane="0"/>

    <connection from="-43785041#6" to="615748568#1" fromLane="0" toLane="0"/>
    <connection from="-43785041#6" to="-43785041#5" fromLane="0" toLane="0"/>
    <connection from="-43785041#6" to="43785041#6" fromLane="0" toLane="0"/>

    <connection from="-43785041#7" to="-43785041#6" fromLane="0" toLane="0"/>
    <connection from="-43785041#7" to="615748569#2" fromLane="0" toLane="0"/>
    <connection from="-43785041#7" to="43785041#7" fromLane="0" toLane="0"/>

    <connection from="-43785041#8" to="615748570#1" fromLane="0" toLane="0"/>
    <connection from="-43785041#8" to="-43785041#7" fromLane="0" toLane="0"/>
    <connection from="-43785041#8" to="43785041#8" fromLane="0" toLane="0"/>

    <connection from="-43785041#9" to="-43785041#8" fromLane="0" toLane="0"/>
    <connection from="-43785041#9" to="615748572#1" fromLane="0" toLane="0"/>
    <connection from="-43785041#9" to="43785041#9" fromLane="0" toLane="0"/>

    <connection from="-44400461" to="44400461" fromLane="0" toLane="0"/>

    <connection from="-44400462#0" to="855734416" fromLane="0" toLane="0"/>
    <connection from="-44400462#0" to="44400462#0" fromLane="0" toLane="0"/>

    <connection from="-44400462#1" to="-44400462#0" fromLane="0" toLane="0"/>
    <connection from="-44400462#1" to="-44400461" fromLane="0" toLane="0"/>
    <connection from="-44400462#1" to="44400462#1" fromLane="0" toLane="0"/>

    <connection from="-45017086" to="-7410725" fromLane="0" toLane="0"/>
    <connection from="-45017086" to="-45017087#3" fromLane="0" toLane="0"/>
    <connection from="-45017086" to="45017086" fromLane="0" toLane="0"/>

    <connection from="-45017087#0" to="465002567#1" fromLane="0" toLane="0"/>
    <connection from="-45017087#0" to="-810359645#1" fromLane="0" toLane="0"/>
    <connection from="-45017087#0" to="-465002567#0" fromLane="0" toLane="0"/>

    <connection from="-45017087#1" to="-45017087#0" fromLane="0" toLane="0"/>
    <connection from="-45017087#1" to="-45017088" fromLane="0" toLane="0"/>
    <connection from="-45017087#1" to="45017087#1" fromLane="0" toLane="0"/>

    <connection from="-45017087#2" to="-45101509" fromLane="0" toLane="0"/>
    <connection from="-45017087#2" to="-45017087#1" fromLane="0" toLane="0"/>
    <connection from="-45017087#2" to="45017087#2" fromLane="0" toLane="0"/>

    <connection from="-45017087#3" to="45101509" fromLane="0" toLane="0"/>
    <connection from="-45017087#3" to="-45017087#2" fromLane="0" toLane="0"/>
    <connection from="-45017087#3" to="45017087#3" fromLane="0" toLane="0"/>

    <connection from="-45017088" to="45017088" fromLane="0" toLane="0"/>

    <connection from="-45017091#0" to="-810359638#1" fromLane="0" toLane="0"/>
    <connection from="-45017091#0" to="-810359639" fromLane="0" toLane="0"/>
    <connection from="-45017091#0" to="45017091#0" fromLane="0" toLane="0"/>

    <connection from="-45017091#1" to="-810359649#1" fromLane="0" toLane="0"/>
    <connection from="-45017091#1" to="-45017091#0" fromLane="0" toLane="0"/>
    <connection from="-45017091#1" to="45017091#1" fromLane="0" toLane="0"/>

    <connection from="-45017092" to="45017104#2" fromLane="0" toLane="0"/>
    <connection from="-45017092" to="-45017104#1" fromLane="0" toLane="0"/>
    <connection from="-45017092" to="45017092" fromLane="0" toLane="0"/>

    <connection from="-45017093#0" to="-45017096#1" fromLane="0" toLane="0"/>