<?xml version="1.0" encoding="UTF-8"?>

<!-- generated on 2021-10-07 21:09:06 by Eclipse SUMO netconvert Version 1.10.0
<configuration xmlns:xsi="http://www.w3.org/2001/XMLSchema-instance" xsi:noNamespaceSchemaLocation="http://sumo.dlr.de/xsd/netconvertConfiguration.xsd">

    <input>
        <sumo-net-file value="csusb.net.xml"/>
    </input>

    <output>
        <plain-output-prefix value="csusb"/>
    </output>

    <processing>
        <geometry.min-radius.fix.railways value="false"/>
        <geometry.max-grade.fix value="false"/>
        <offset.disable-normalization value="true"/>
        <lefthand value="false"/>
    </processing>

    <junctions>
        <no-internal-links value="true"/>
        <no-turnarounds value="true"/>
        <junctions.corner-detail value="5"/>
        <junctions.limit-turn-speed value="5.5"/>
        <rectangular-lane-cut value="false"/>
    </junctions>

    <pedestrian>
        <walkingareas value="false"/>
    </pedestrian>

    <report>
        <aggregate-warnings value="5"/>
    </report>

</configuration>
-->

<edges version="1.9" xmlns:xsi="http://www.w3.org/2001/XMLSchema-instance" xsi:noNamespaceSchemaLocation="http://sumo.dlr.de/xsd/edges_file.xsd">
    <edge id="-162155429#1" from="7039366899" to="cluster_571801970_6973783549" priority="1" type="highway.service" numLanes="1" speed="6.71" shape="1192.73,1720.17 1184.50,1739.66 1183.35,1745.78 1184.95,1754.90 1190.25,1761.32 1212.63,1770.58 1219.48,1773.97 1224.36,1779.01 1226.91,1786.16 1226.07,1794.90 1223.31,1802.37 1222.43,1804.63 1219.23,1812.55" allow="pedestrian delivery bicycle"/>
    <edge id="-162155429#10" from="7039322881" to="7039322884" priority="1" type="highway.service" numLanes="1" speed="6.71" allow="pedestrian delivery bicycle"/>
    <edge id="-162155429#11" from="7039322880" to="7039322881" priority="1" type="highway.service" numLanes="1" speed="6.71" allow="pedestrian delivery bicycle"/>
    <edge id="-162155429#12" from="7039322877" to="7039322880" priority="1" type="highway.service" numLanes="1" speed="6.71" allow="pedestrian delivery bicycle"/>
    <edge id="-162155429#13" from="7039322876" to="7039322877" priority="1" type="highway.service" numLanes="1" speed="6.71" allow="pedestrian delivery bicycle"/>
    <edge id="-162155429#14" from="7039322872" to="7039322876" priority="1" type="highway.service" numLanes="1" speed="6.71" shape="1309.71,1524.14 1299.22,1536.19 1297.32,1538.81" allow="pedestrian delivery bicycle"/>
    <edge id="-162155429#15" from="7039322868" to="7039322872" priority="1" type="highway.service" numLanes="1" speed="6.71" allow="pedestrian delivery bicycle"/>
    <edge id="-162155429#16" from="7039322867" to="7039322868" priority="1" type="highway.service" numLanes="1" speed="6.71" allow="pedestrian delivery bicycle"/>
    <edge id="-162155429#17" from="571801985" to="7039322867" priority="1" type="highway.service" numLanes="1" speed="6.71" allow="pedestrian delivery bicycle"/>
    <edge id="-162155429#2" from="7039366897" to="7039366899" priority="1" type="highway.service" numLanes="1" speed="6.71" allow="pedestrian delivery bicycle"/>
    <edge id="-162155429#3" from="7039366894" to="7039366897" priority="1" type="highway.service" numLanes="1" speed="6.71" allow="pedestrian delivery bicycle"/>
    <edge id="-162155429#4" from="7039366893" to="7039366894" priority="1" type="highway.service" numLanes="1" speed="6.71" allow="pedestrian delivery bicycle"/>
    <edge id="-162155429#5" from="7039366890" to="7039366893" priority="1" type="highway.service" numLanes="1" speed="6.71" shape="1221.87,1655.23 1215.00,1667.41 1213.71,1670.49" allow="pedestrian delivery bicycle"/>
    <edge id="-162155429#6" from="7039366889" to="7039366890" priority="1" type="highway.service" numLanes="1" speed="6.71" allow="pedestrian delivery bicycle"/>
    <edge id="-162155429#7" from="7039366886" to="7039366889" priority="1" type="highway.service" numLanes="1" speed="6.71" allow="pedestrian delivery bicycle"/>
    <edge id="-162155429#8" from="7039366885" to="7039366886" priority="1" type="highway.service" numLanes="1" speed="6.71" allow="pedestrian delivery bicycle"/>
    <edge id="-162155429#9" from="7039322884" to="7039366885" priority="1" type="highway.service" numLanes="1" speed="6.71" shape="1256.84,1594.40 1253.87,1598.47 1248.03,1608.84" allow="pedestrian delivery bicycle"/>
    <edge id="-164423261#0" from="5324614620" to="570726839" priority="10" type="highway.tertiary" numLanes="2" speed="11.18" shape="1701.50,2239.64 1668.05,2252.10 1645.82,2260.83 1626.18,2270.49 1592.43,2290.58" disallow="tram rail_urban rail rail_electric rail_fast ship"/>
    <edge id="-164423261#1" from="54706920" to="5324614620" priority="10" type="highway.tertiary" numLanes="2" speed="11.18" disallow="tram rail_urban rail rail_electric rail_fast ship"/>
    <edge id="-164423265" from="1760604756" to="1760604646" priority="3" type="highway.residential" numLanes="1" speed="13.89" shape="3341.06,1906.78 3322.01,1891.15 3315.43,1884.19 3310.30,1876.80 3305.92,1868.40 3301.32,1856.86 3299.47,1849.89 3299.14,1840.31 3299.30,1830.74 3300.83,1822.01 3304.27,1811.56 3309.10,1802.01 3314.69,1793.66 3337.04,1764.78 3342.32,1757.28 3345.99,1750.10 3348.78,1741.05 3350.78,1731.47 3351.75,1722.21 3351.65,1713.01 3351.17,1699.15" disallow="tram rail_urban rail rail_electric rail_fast ship"/>
    <edge id="-164423273#0" from="1760604665" to="54700579" priority="3" type="highway.residential" numLanes="1" speed="13.89" shape="3472.51,1720.20 3486.79,1701.40 3502.95,1685.68 3536.31,1638.90 3545.31,1625.69 3555.70,1608.29 3564.37,1590.74 3573.19,1567.30 3577.96,1549.60 3581.65,1530.97 3583.65,1509.33 3584.12,1456.42 3584.90,1367.17" disallow="tram rail_urban rail rail_electric rail_fast ship"/>
    <edge id="-164423273#1" from="1760604756" to="1760604665" priority="3" type="highway.residential" numLanes="1" speed="13.89" disallow="tram rail_urban rail rail_electric rail_fast ship"/>
    <edge id="-164423273#2" from="1760604797" to="1760604756" priority="3" type="highway.residential" numLanes="1" speed="13.89" shape="3310.54,1956.77 3309.97,1952.27 3311.05,1947.44 3320.15,1936.56 3341.06,1906.78" disallow="tram rail_urban rail rail_electric rail_fast ship"/>
    <edge id="-164423277#0" from="1760604646" to="1760604665" priority="3" type="highway.residential" numLanes="1" speed="13.89" shape="3351.17,1699.15 3390.80,1697.28 3409.24,1696.35 3421.86,1697.14 3434.48,1700.00 3448.11,1704.62 3460.58,1711.56 3472.51,1720.20" disallow="tram rail_urban rail rail_electric rail_fast ship"/>
    <edge id="-164423277#1" from="1760604664" to="1760604646" priority="3" type="highway.residential" numLanes="1" speed="13.89" shape="3262.77,1720.04 3272.40,1710.02 3280.98,1705.84 3286.75,1703.85 3297.93,1702.01 3321.50,1700.56 3351.17,1699.15" disallow="tram rail_urban rail rail_electric rail_fast ship"/>
    <edge id="-164423279" from="1760604797" to="1760604738" priority="3" type="highway.residential" numLanes="1" speed="13.89" shape="3310.54,1956.77 3313.23,1960.86 3316.55,1964.15 3327.69,1969.49 3340.92,1973.94 3353.71,1975.54 3365.38,1975.08 3382.38,1972.15 3454.42,1951.78 3469.57,1948.36 3652.23,1895.25 3670.76,1892.30 3673.45,1890.04 3676.33,1885.84" disallow="tram rail_urban rail rail_electric rail_fast ship"/>
    <edge id="-164423282#0" from="1760604832" to="1760604839" priority="1" type="highway.service" numLanes="1" speed="5.56" shape="3257.51,1991.87 3252.09,1994.84 3247.37,1998.69" allow="pedestrian delivery bicycle"/>
    <edge id="-164423282#1" from="1760604797" to="1760604832" priority="1" type="highway.service" numLanes="1" speed="5.56" shape="3310.54,1956.77 3301.28,1963.33 3297.18,1968.22 3286.64,1985.41 3281.93,1989.52 3277.73,1991.97 3271.78,1992.08 3264.51,1991.85 3257.51,1991.87" allow="pedestrian delivery bicycle"/>
    <edge id="-164423286" from="1760604832" to="4354771093" priority="1" type="highway.track" numLanes="1" speed="5.56" shape="3257.51,1991.87 3247.91,1970.89 3243.26,1940.06 3245.90,1915.57 3251.61,1834.60 3252.25,1815.33 3251.86,1800.61 3251.48,1790.85 3249.34,1778.75 3235.60,1721.80 3230.84,1709.36 3225.73,1698.31 3220.80,1689.78 3215.35,1682.74 3207.63,1676.14 3199.74,1672.51 3190.54,1670.71 3137.06,1671.12 3110.39,1670.86 3084.02,1670.40" allow="pedestrian motorcycle moped bicycle"/>
    <edge id="-164423288" from="1760604827" to="1760604824" priority="1" type="highway.service" numLanes="1" speed="5.56" allow="pedestrian delivery bicycle"/>
    <edge id="-164423307" from="1760604563" to="1760604570" priority="1" type="highway.service" numLanes="1" speed="5.56" shape="2431.70,778.60 2430.95,854.28 2430.67,882.99 2436.42,900.54" allow="pedestrian delivery bicycle"/>
    <edge id="-164423308#1" from="cluster_1760604826_2460998374" to="1760604812" priority="1" type="highway.service" numLanes="1" speed="5.56" shape="2089.71,1986.60 2084.16,1982.25 2082.46,1980.92 2067.52,1970.23 2057.19,1965.62 2046.97,1963.99 2035.48,1964.45 2024.83,1968.20 2013.05,1975.16" allow="pedestrian delivery bicycle"/>
    <edge id="-164423310#0" from="1760604802" to="1760604786" priority="1" type="highway.service" numLanes="1" speed="6.71" shape="1904.37,1966.09 1895.97,1951.29 1893.23,1936.14" allow="pedestrian delivery bicycle"/>
    <edge id="-164423310#1" from="1760604827" to="1760604802" priority="1" type="highway.service" numLanes="1" speed="6.71" allow="pedestrian delivery bicycle"/>
    <edge id="-164423310#2" from="5324614597" to="1760604827" priority="1" type="highway.service" numLanes="1" speed="6.71" allow="pedestrian delivery bicycle"/>
    <edge id="-164423310#4" from="cluster_1760604882_2460998375" to="5324614597" priority="1" type="highway.service" numLanes="1" speed="6.71" shape="2003.28,2105.78 1999.24,2100.78 1998.61,2100.02 1971.34,2069.30 1948.77,2035.08" allow="pedestrian delivery bicycle"/>
    <edge id="-164423310#6" from="1760604885" to="cluster_1760604882_2460998375" priority="1" type="highway.service" numLanes="1" speed="6.71" shape="2017.79,2121.68 2009.69,2112.99" allow="pedestrian delivery bicycle"/>
    <edge id="-164423311#1" from="570726839" to="1760604899" priority="1" type="highway.service" numLanes="1" speed="5.56" shape="1592.43,2290.58 1585.84,2282.09 1567.77,2258.97 1565.62,2257.07 1562.90,2255.94 1559.05,2255.47 1555.33,2256.31 1550.76,2259.00" allow="pedestrian delivery bicycle"/>
    <edge id="-164423311#2" from="1760604907" to="570726839" priority="1" type="highway.service" numLanes="1" speed="5.56" allow="pedestrian delivery bicycle"/>
    <edge id="-164423321" from="54609669" to="1760604493" priority="3" type="highway.residential" numLanes="1" speed="13.89" shape="2993.24,1057.00 2994.19,849.58 2993.05,659.24 2994.11,648.10 2994.36,540.88 2994.41,519.70 2994.45,500.67 2994.58,467.88 2994.61,434.50 2994.62,427.35 2995.25,365.36 2996.26,244.82 2995.43,241.44 2994.22,236.42 2994.50,199.13 2994.54,193.97 2995.59,188.62 2996.02,95.82" disallow="tram rail_urban rail rail_electric rail_fast ship"/>
    <edge id="-165392477#0" from="8095575132" to="1769426512" priority="1" type="highway.track" numLanes="1" speed="5.56" allow="pedestrian motorcycle moped bicycle"/>
    <edge id="-165392477#1" from="1769426465" to="8095575132" priority="1" type="highway.track" numLanes="1" speed="5.56" allow="pedestrian motorcycle moped bicycle"/>
    <edge id="-165392477#2" from="1769426442" to="1769426465" priority="1" type="highway.track" numLanes="1" speed="5.56" shape="573.84,2224.91 565.86,2234.04 552.92,2262.09 536.14,2308.37 528.62,2317.73 519.03,2321.87 507.13,2320.31 494.53,2315.12 482.86,2312.88 472.80,2317.01 401.15,2365.44" allow="pedestrian motorcycle moped bicycle"/>
    <edge id="-165392488#1" from="5324614617" to="5324614601" priority="1" type="highway.service" numLanes="1" speed="6.71" shape="1625.26,2094.08 1637.44,2089.63 1655.82,2078.76 1674.54,2065.76 1677.72,2062.96 1688.96,2047.15 1704.79,2036.97 1708.94,2032.10" allow="pedestrian delivery bicycle"/>
    <edge id="-165392488#2" from="7900978481" to="5324614617" priority="1" type="highway.service" numLanes="1" speed="6.71" shape="1546.48,2134.24 1560.06,2124.92 1582.88,2109.76 1586.59,2108.05 1607.74,2099.37 1625.26,2094.08" allow="pedestrian delivery bicycle"/>
    <edge id="-165392488#4" from="5324615456" to="7900978481" priority="1" type="highway.service" numLanes="1" speed="6.71" shape="1508.70,2152.90 1520.75,2148.68 1540.54,2137.57 1546.48,2134.24" allow="pedestrian delivery bicycle"/>
    <edge id="-165392488#5" from="571802148" to="5324615456" priority="1" type="highway.service" numLanes="1" speed="6.71" shape="1423.35,2170.21 1428.10,2162.23 1433.26,2155.91 1439.24,2152.83 1446.71,2152.14 1453.73,2153.79 1461.55,2155.42 1473.57,2156.41 1487.03,2156.26 1508.70,2152.90" allow="pedestrian delivery bicycle"/>
    <edge id="-165392493#1" from="1769426426" to="1769426439" priority="1" type="highway.service" numLanes="1" speed="5.56" shape="1443.51,2184.14 1447.04,2185.95 1454.33,2189.71 1461.34,2201.21" allow="pedestrian delivery bicycle"/>
    <edge id="-165392493#2" from="571802148" to="1769426426" priority="1" type="highway.service" numLanes="1" speed="5.56" shape="1423.35,2170.21 1429.24,2176.67 1443.51,2184.14" allow="pedestrian delivery bicycle"/>
    <edge id="-165392494#0" from="7377661451" to="1769426450" priority="1" type="highway.service" numLanes="1" speed="5.56" shape="1428.06,2317.24 1431.72,2313.47 1444.63,2303.49 1458.10,2295.30" allow="pedestrian delivery bicycle"/>
    <edge id="-165392494#1" from="1769426463" to="7377661451" priority="1" type="highway.service" numLanes="1" speed="5.56" shape="1417.86,2328.97 1423.81,2321.60 1428.06,2317.24" allow="pedestrian delivery bicycle"/>
    <edge id="-182417506#0" from="1927661563" to="1769426324" priority="1" type="highway.service" numLanes="1" speed="6.71" allow="pedestrian delivery bicycle"/>
    <edge id="-182417506#1" from="7283817204" to="1927661563" priority="1" type="highway.service" numLanes="1" speed="6.71" shape="1265.20,1918.04 1263.96,1912.95 1264.17,1899.80 1266.48,1889.88 1274.64,1869.93 1284.08,1843.95" allow="pedestrian delivery bicycle"/>
    <edge id="-182417506#7" from="5324615451" to="7283817204" priority="1" type="highway.service" numLanes="1" speed="6.71" shape="1375.74,2116.11 1367.73,2101.64 1361.74,2092.25 1338.39,2055.61 1316.67,2017.55 1301.93,1991.72 1301.52,1990.98 1270.92,1935.09 1267.11,1925.82 1265.20,1918.04" allow="pedestrian delivery bicycle"/>
    <edge id="-182417506#8" from="571802148" to="5324615451" priority="1" type="highway.service" numLanes="1" speed="6.71" shape="1423.35,2170.21 1412.39,2161.09 1400.89,2148.79 1387.60,2133.33 1375.74,2116.11" allow="pedestrian delivery bicycle"/>
    <edge id="-182417518" from="571802040" to="1927661563" priority="1" type="highway.service" numLanes="1" speed="5.56" shape="1268.28,1833.01 1275.71,1836.61 1284.08,1843.95" allow="pedestrian delivery bicycle"/>
    <edge id="-185937927#0" from="6378302210" to="1966238448" priority="11" type="highway.secondary" numLanes="2" speed="27.78" disallow="tram rail_urban rail rail_electric rail_fast ship"/>
    <edge id="-185937927#1" from="3590156146" to="6378302210" priority="11" type="highway.secondary" numLanes="2" speed="27.78" disallow="tram rail_urban rail rail_electric rail_fast ship"/>
    <edge id="-185937927#2" from="cluster_54792660_7028184031" to="3590156146" priority="11" type="highway.secondary" numLanes="2" speed="27.78" shape="58.87,1712.13 160.57,1648.09 190.01,1629.73" disallow="tram rail_urban rail rail_electric rail_fast ship"/>
    <edge id="-185937928#0" from="54549414" to="1966238447" priority="11" type="highway.secondary" numLanes="1" speed="27.78" disallow="tram rail_urban rail rail_electric rail_fast ship"/>
    <edge id="-185937928#1" from="8227405812" to="54549414" priority="11" type="highway.secondary" numLanes="1" speed="27.78" disallow="tram rail_urban rail rail_electric rail_fast ship"/>
    <edge id="-185937928#2" from="6378302202" to="8227405812" priority="11" type="highway.secondary" numLanes="1" speed="27.78" disallow="tram rail_urban rail rail_electric rail_fast ship"/>
    <edge id="-185937928#3" from="54703739" to="6378302202" priority="11" type="highway.secondary" numLanes="1" speed="27.78" disallow="tram rail_urban rail rail_electric rail_fast ship"/>
    <edge id="-185937928#4" from="1966238448" to="54703739" priority="11" type="highway.secondary" numLanes="1" speed="27.78" disallow="tram rail_urban rail rail_electric rail_fast ship"/>
    <edge id="-245008167#0" from="54547340" to="cluster_2522708666_54569017" priority="3" type="highway.residential" numLanes="1" speed="13.89" shape="3217.99,1498.63 3194.81,1424.62 3193.42,1414.78" disallow="tram rail_urban rail rail_electric rail_fast ship"/>
    <edge id="-245008167#1" from="54712871" to="54547340" priority="3" type="highway.residential" numLanes="1" speed="13.89" shape="3226.36,1623.16 3219.84,1508.81 3217.99,1498.63" disallow="tram rail_urban rail rail_electric rail_fast ship"/>
    <edge id="-305454118#0" from="8519530039" to="54569014" priority="3" type="highway.residential" numLanes="1" speed="13.89" disallow="tram rail_urban rail rail_electric rail_fast ship"/>
    <edge id="-305454118#1" from="54712421" to="8519530039" priority="3" type="highway.residential" numLanes="1" speed="13.89" disallow="tram rail_urban rail rail_electric rail_fast ship"/>
    <edge id="-305454118#2" from="5408675342" to="54712421" priority="3" type="highway.residential" numLanes="1" speed="13.89" disallow="tram rail_urban rail rail_electric rail_fast ship"/>
    <edge id="-305454118#3" from="54609669" to="5408675342" priority="3" type="highway.residential" numLanes="1" speed="13.89" disallow="tram rail_urban rail rail_electric rail_fast ship"/>
    <edge id="-305454118#4" from="54580463" to="54609669" priority="3" type="highway.residential" numLanes="1" speed="13.89" disallow="tram rail_urban rail rail_electric rail_fast ship"/>
    <edge id="-305454118#5" from="5408675341" to="54580463" priority="3" type="highway.residential" numLanes="1" speed="13.89" disallow="tram rail_urban rail rail_electric rail_fast ship"/>
    <edge id="-305454118#6" from="8233632118" to="5408675341" priority="3" type="highway.residential" numLanes="1" speed="13.89" disallow="tram rail_urban rail rail_electric rail_fast ship"/>
    <edge id="-305454118#7" from="54792260" to="8233632118" priority="3" type="highway.residential" numLanes="1" speed="13.89" disallow="tram rail_urban rail rail_electric rail_fast ship"/>
    <edge id="-305454118#8" from="54816687" to="54792260" priority="3" type="highway.residential" numLanes="1" speed="13.89" disallow="tram rail_urban rail rail_electric rail_fast ship"/>
    <edge id="-305454118#9" from="54723513" to="54816687" priority="3" type="highway.residential" numLanes="1" speed="13.89" disallow="tram rail_urban rail rail_electric rail_fast ship"/>
    <edge id="-305454122#0" from="54792725" to="1966238447" priority="11" type="highway.secondary" numLanes="2" speed="27.78" disallow="tram rail_urban rail rail_electric rail_fast ship"/>
    <edge id="-305454122#1" from="4787503448" to="54792725" priority="11" type="highway.secondary" numLanes="2" speed="27.78" disallow="tram rail_urban rail rail_electric rail_fast ship"/>
    <edge id="-305454122#3" from="cluster_554807475_554807653" to="4787503448" priority="11" type="highway.secondary" numLanes="2" speed="27.78" shape="984.38,1151.07 971.49,1158.37 882.57,1208.61" disallow="tram rail_urban rail rail_electric rail_fast ship"/>
    <edge id="-305454129#0" from="54609426" to="54519548" priority="11" type="highway.secondary" numLanes="2" speed="20.12" shape="2477.93,876.97 2478.17,847.39 2478.45,685.19 2478.84,659.88 2478.82,658.49 2479.35,647.51" disallow="tram rail_urban rail rail_electric rail_fast ship"/>
    <edge id="-305454129#1" from="54609429" to="54609426" priority="11" type="highway.secondary" numLanes="2" speed="20.12" disallow="tram rail_urban rail rail_electric rail_fast ship"/>
    <edge id="-305454129#2" from="54609434" to="54609429" priority="11" type="highway.secondary" numLanes="2" speed="20.12" shape="2494.24,1209.12 2486.08,1182.32 2479.93,1155.23 2477.40,1136.50 2476.04,1116.52 2477.13,950.23" disallow="tram rail_urban rail rail_electric rail_fast ship"/>
    <edge id="-305454129#4" from="cluster_2522708684_54609438" to="54609434" priority="11" type="highway.secondary" numLanes="2" speed="20.12" shape="2562.46,1442.17 2562.41,1433.42 2560.34,1393.41 2557.14,1372.82 2552.39,1348.80 2544.08,1320.89 2514.92,1261.02 2503.08,1235.31 2494.24,1209.12" disallow="tram rail_urban rail rail_electric rail_fast ship"/>
    <edge id="-305454136#0" from="54569014" to="54519539" priority="10" type="highway.tertiary" numLanes="1" speed="22.22" shape="3192.49,1058.22 3193.67,849.94 3194.61,799.58 3195.37,758.59 3195.91,729.67 3196.65,690.16 3197.26,657.45 3194.77,650.28" disallow="tram rail_urban rail rail_electric rail_fast ship"/>
    <edge id="-305454136#1" from="5408675300" to="54569014" priority="10" type="highway.tertiary" numLanes="1" speed="22.22" disallow="tram rail_urban rail rail_electric rail_fast ship"/>
    <edge id="-305454136#2" from="5408675299" to="5408675300" priority="10" type="highway.tertiary" numLanes="1" speed="22.22" disallow="tram rail_urban rail rail_electric rail_fast ship"/>
    <edge id="-305454136#3" from="54569015" to="5408675299" priority="10" type="highway.tertiary" numLanes="1" speed="22.22" disallow="tram rail_urban rail rail_electric rail_fast ship"/>
    <edge id="-305454136#4" from="cluster_2522708666_54569017" to="54569015" priority="10" type="highway.tertiary" numLanes="1" speed="22.22" shape="3191.33,1402.86 3190.85,1393.07 3191.21,1269.68" disallow="tram rail_urban rail rail_electric rail_fast ship"/>
    <edge id="-305454911#0" from="54792372" to="54519557" priority="11" type="highway.secondary" numLanes="2" speed="27.78" shape="1367.43,929.31 1658.01,767.76 1886.99,633.97 1952.14,597.79" disallow="tram rail_urban rail rail_electric rail_fast ship"/>
    <edge id="-305454911#1" from="4787502696" to="54792372" priority="11" type="highway.secondary" numLanes="2" speed="27.78" disallow="tram rail_urban rail rail_electric rail_fast ship"/>
    <edge id="-305454911#2" from="4787503427" to="4787502696" priority="11" type="highway.secondary" numLanes="2" speed="27.78" disallow="tram rail_urban rail rail_electric rail_fast ship"/>
    <edge id="-305454911#3" from="4702164207" to="4787503427" priority="11" type="highway.secondary" numLanes="2" speed="27.78" disallow="tram rail_urban rail rail_electric rail_fast ship"/>
    <edge id="-305454911#5" from="cluster_554807475_554807653" to="4702164207" priority="11" type="highway.secondary" numLanes="2" speed="27.78" shape="1000.59,1142.26 1014.07,1134.44 1046.05,1115.88" disallow="tram rail_urban rail rail_electric rail_fast ship"/>
    <edge id="-353236243" from="3590156148" to="3590156146" priority="3" type="highway.residential" numLanes="1" speed="13.89" shape="250.25,1736.37 251.13,1727.82 190.01,1629.73" disallow="tram rail_urban rail rail_electric rail_fast ship"/>
    <edge id="-366207135" from="3701916550" to="cluster_2479573441_2479573442_2479573443_2479573444_570726821_570726824" priority="3" type="highway.residential" numLanes="1" speed="13.89" shape="234.90,1981.43 244.53,1995.75 258.29,2015.98 279.85,2049.39 292.74,2067.66 304.17,2082.93 320.32,2101.99 334.86,2116.59 360.09,2137.50 374.83,2147.26 401.48,2162.32 419.70,2170.63 437.41,2177.42 457.15,2184.00 485.43,2190.47 530.47,2198.76 564.56,2207.02 588.44,2216.39 627.70,2233.07 710.37,2268.95 841.30,2323.13 926.06,2358.20 960.61,2373.24 966.27,2374.96 972.06,2374.57 975.75,2372.61 979.62,2364.10 982.52,2345.94 995.25,2331.35" disallow="tram rail_urban rail rail_electric rail_fast ship"/>
    <edge id="-437684515" from="7488967902" to="570727162" priority="1" type="highway.track" numLanes="1" speed="5.56" shape="2145.76,2370.55 2156.93,2363.84 2197.23,2377.56 2245.03,2400.03 2254.44,2402.88 2281.90,2405.35 2325.43,2415.08 2333.17,2414.17 2349.09,2408.58 2384.49,2384.63 2420.01,2369.66 2429.65,2356.32 2445.20,2320.90 2463.21,2302.44 2484.07,2285.63 2520.60,2268.00 2584.32,2252.17 2589.83,2247.05 2597.34,2232.17 2606.11,2208.86 2613.82,2196.42 2624.48,2187.51 2639.75,2178.15 2700.19,2148.03 2766.48,2126.43 2778.16,2119.18 2806.67,2071.97 2836.70,2037.62 2863.90,2012.81 2885.33,1998.55 2903.16,1984.30 2913.63,1973.85 2917.30,1966.96 2924.69,1942.21 2927.00,1916.37 2929.84,1909.04 2935.35,1904.26 2940.70,1903.35 2948.44,1904.77 2968.80,1912.79" allow="pedestrian motorcycle moped bicycle"/>
    <edge id="-437684516#0" from="4354771046" to="4354771111" priority="1" type="highway.track" numLanes="1" speed="5.56" shape="1952.98,2271.52 1963.73,2289.92 1966.53,2299.22 1967.82,2329.60 1978.86,2354.85 1984.39,2382.98 1993.83,2425.88 1940.16,2443.45 1823.70,2475.09 1745.27,2499.07 1631.20,2528.70 1575.11,2537.53 1523.86,2533.03 1494.07,2525.81 1438.09,2509.14 1412.33,2494.14" allow="pedestrian motorcycle moped bicycle"/>
    <edge id="-437684516#1" from="4354771093" to="4354771046" priority="1" type="highway.track" numLanes="1" speed="5.56" shape="3084.02,1670.40 3080.39,1720.08 3077.29,1728.30 3073.52,1732.63 3066.71,1736.09 3054.09,1737.02 3027.45,1733.88 2999.97,1729.53 2946.58,1717.72 2924.65,1717.56 2864.40,1724.29 2839.26,1730.35 2774.45,1750.06 2689.26,1766.18 2663.38,1773.25 2652.44,1779.82 2626.98,1801.63 2571.59,1830.52 2553.64,1836.34 2535.58,1837.84 2530.62,1841.07 2530.54,1845.62 2542.43,1875.41 2554.18,1892.34 2556.05,1900.76 2554.78,1908.19 2532.16,1951.84 2513.07,1976.96 2502.68,1986.19 2487.31,1993.11 2457.19,1994.10 2405.36,2012.66 2400.40,2015.56 2385.34,2035.68 2372.94,2048.36 2357.23,2061.82 2337.73,2074.74 2326.23,2079.55 2311.77,2081.48 2302.00,2080.62 2292.49,2075.88 2269.83,2047.46 2257.82,2037.29 2248.69,2035.99 2237.18,2040.68 2165.91,2087.48 2146.97,2098.07 2097.23,2136.70 2026.41,2176.95 1967.76,2223.60 1961.43,2231.16 1953.28,2246.93 1950.47,2263.24 1952.98,2271.52" allow="pedestrian motorcycle moped bicycle"/>
    <edge id="-437684517#0" from="4354771111" to="570726928" priority="1" type="highway.track" numLanes="1" speed="5.56" shape="1412.33,2494.14 1416.37,2488.14 1424.13,2467.16 1434.78,2452.82 1444.51,2442.92 1453.98,2436.12 1487.50,2430.03 1496.51,2424.23 1540.43,2382.74 1589.11,2332.68 1606.48,2313.28 1628.82,2301.73 1658.16,2284.56 1665.70,2281.99 1672.98,2282.52 1677.42,2285.61 1682.61,2294.80 1686.35,2314.19 1691.47,2328.03 1697.75,2333.78 1719.70,2339.14 1731.49,2338.88 1750.27,2332.95 1785.32,2314.98 1810.26,2304.82 1853.80,2290.93 1890.50,2271.03" allow="pedestrian motorcycle moped bicycle"/>
    <edge id="-437684517#1" from="570726831" to="4354771111" priority="1" type="highway.track" numLanes="1" speed="5.56" shape="1025.13,2348.24 1036.97,2361.62 1043.36,2373.91 1049.56,2381.43 1056.95,2386.29 1128.52,2407.01 1145.87,2414.27 1308.13,2469.86 1397.78,2496.07 1407.37,2496.59 1412.33,2494.14" allow="pedestrian motorcycle moped bicycle"/>
    <edge id="-43783232" from="554764039" to="554764018" priority="3" type="highway.residential" numLanes="1" speed="13.89" shape="586.88,1973.65 608.32,1998.77 652.71,2028.55 708.95,2053.56" disallow="tram rail_urban rail rail_electric rail_fast ship"/>
    <edge id="-43783233#0" from="554764058" to="554764230" priority="3" type="highway.residential" numLanes="1" speed="13.89" shape="1020.51,1546.30 1040.76,1511.21 1093.59,1436.50 1107.37,1429.18" disallow="tram rail_urban rail rail_electric rail_fast ship"/>
    <edge id="-43783247#0" from="571801948" to="554764120" priority="3" type="highway.residential" numLanes="1" speed="13.89" shape="787.96,1965.70 775.90,1966.73 759.11,1965.54 744.29,1961.98 727.85,1954.32 713.61,1944.26 702.56,1935.55 688.73,1917.42" disallow="tram rail_urban rail rail_electric rail_fast ship"/>
    <edge id="-43783247#1" from="554764558" to="571801948" priority="3" type="highway.residential" numLanes="1" speed="13.89" shape="978.50,1974.30 935.97,1958.03 902.82,1945.85 885.09,1944.37 868.47,1945.09 848.35,1949.55 812.92,1959.10 787.96,1965.70" disallow="tram rail_urban rail rail_electric rail_fast ship"/>
    <edge id="-43783247#2" from="cluster_554764369_554764433" to="554764558" priority="3" type="highway.residential" numLanes="1" speed="13.89" shape="1036.87,1997.74 978.50,1974.30" disallow="tram rail_urban rail rail_electric rail_fast ship"/>
    <edge id="-43785041#0" from="5822254588" to="554807980" priority="1" type="highway.service" numLanes="1" speed="6.71" allow="pedestrian delivery bicycle"/>
    <edge id="-43785041#1" from="5822252128" to="5822254588" priority="1" type="highway.service" numLanes="1" speed="6.71" allow="pedestrian delivery bicycle"/>
    <edge id="-43785041#10" from="5822255847" to="5822254606" priority="1" type="highway.service" numLanes="1" speed="6.71" allow="pedestrian delivery bicycle"/>
    <edge id="-43785041#11" from="5059054618" to="5822255847" priority="1" type="highway.service" numLanes="1" speed="6.71" allow="pedestrian delivery bicycle"/>
    <edge id="-43785041#12" from="554808007" to="5059054618" priority="1" type="highway.service" numLanes="1" speed="6.71" shape="1711.18,1382.45 1709.78,1386.18 1707.12,1388.68 1703.61,1389.81 1693.75,1392.77" allow="pedestrian delivery bicycle"/>
    <edge id="-43785041#2" from="5822254995" to="5822252128" priority="1" type="highway.service" numLanes="1" speed="6.71" allow="pedestrian delivery bicycle"/>
    <edge id="-43785041#3" from="5822255839" to="5822254995" priority="1" type="highway.service" numLanes="1" speed="6.71" allow="pedestrian delivery bicycle"/>
    <edge id="-43785041#4" from="5822255843" to="5822255839" priority="1" type="highway.service" numLanes="1" speed="6.71" allow="pedestrian delivery bicycle"/>