<?xml version="1.0" encoding="UTF-8"?>

<!-- generated on 2021-10-07 21:09:06 by Eclipse SUMO netconvert Version 1.10.0
<configuration xmlns:xsi="http://www.w3.org/2001/XMLSchema-instance" xsi:noNamespaceSchemaLocation="http://sumo.dlr.de/xsd/netconvertConfiguration.xsd">

    <input>
        <sumo-net-file value="csusb.net.xml"/>
    </input>

    <output>
        <plain-output-prefix value="csusb"/>
    </output>

    <processing>
        <geometry.min-radius.fix.railways value="false"/>
        <geometry.max-grade.fix value="false"/>
        <offset.disable-normalization value="true"/>
        <lefthand value="false"/>
    </processing>

    <junctions>
        <no-internal-links value="true"/>
        <no-turnarounds value="true"/>
        <junctions.corner-detail value="5"/>
        <junctions.limit-turn-speed value="5.5"/>
        <rectangular-lane-cut value="false"/>
    </junctions>

    <pedestrian>
        <walkingareas value="false"/>
    </pedestrian>

    <report>
        <aggregate-warnings value="5"/>
    </report>

</configuration>
-->

<nodes version="1.9" xmlns:xsi="http://www.w3.org/2001/XMLSchema-instance" xsi:noNamespaceSchemaLocation="http://sumo.dlr.de/xsd/nodes_file.xsd">
    <location netOffset="-468504.16,-3780601.85" convBoundary="0.00,0.00,4853.21,4212.59" origBoundary="-117.341804,34.164776,-117.289097,34.203899" projParameter="+proj=utm +zone=11 +ellps=WGS84 +datum=WGS84 +units=m +no_defs"/>

    <node id="1740914156" x="1448.86" y="1487.89" type="priority"/>
    <node id="1740914158" x="1417.19" y="1486.84" type="priority"/>
    <node id="1740914164" x="1457.69" y="1501.31" type="priority"/>
    <node id="1740914169" x="1430.33" y="1506.20" type="priority"/>
    <node id="1760604493" x="2996.02" y="95.82" type="priority"/>
    <node id="1760604563" x="2431.70" y="778.60" type="priority"/>
    <node id="1760604570" x="2436.42" y="900.54" type="right_before_left"/>
    <node id="1760604572" x="2596.31" y="1003.74" type="priority"/>
    <node id="1760604646" x="3351.17" y="1699.15" type="priority"/>
    <node id="1760604664" x="3262.77" y="1720.04" type="priority"/>
    <node id="1760604665" x="3472.51" y="1720.20" type="priority"/>
    <node id="1760604738" x="3676.33" y="1885.84" type="priority"/>
    <node id="1760604756" x="3341.06" y="1906.78" type="priority"/>
    <node id="1760604786" x="1893.23" y="1936.14" type="priority"/>
    <node id="1760604797" x="3310.54" y="1956.77" type="priority"/>
    <node id="1760604802" x="1904.37" y="1966.09" type="right_before_left"/>
    <node id="1760604812" x="2013.05" y="1975.16" type="priority"/>
    <node id="1760604824" x="1930.88" y="1988.58" type="priority"/>
    <node id="1760604827" x="1923.03" y="1994.25" type="right_before_left"/>
    <node id="1760604832" x="3257.51" y="1991.87" type="right_before_left"/>
    <node id="1760604839" x="3247.37" y="1998.69" type="priority"/>
    <node id="1760604885" x="2017.79" y="2121.68" type="priority">
        <param key="buffer_stop" value="true"/>
    </node>
    <node id="1760604899" x="1550.76" y="2259.00" type="priority"/>
    <node id="1760604907" x="1602.58" y="2304.61" type="priority">
        <param key="buffer_stop" value="true"/>
    </node>
    <node id="1769426292" x="1476.23" y="1592.44" type="priority"/>
    <node id="1769426324" x="1288.45" y="1834.88" type="priority"/>
    <node id="1769426348" x="1998.08" y="1895.09" type="priority"/>
    <node id="1769426426" x="1443.51" y="2184.14" type="right_before_left"/>
    <node id="1769426439" x="1461.34" y="2201.21" type="priority"/>
    <node id="1769426442" x="573.84" y="2224.91" type="priority"/>
    <node id="1769426450" x="1458.10" y="2295.30" type="priority"/>
    <node id="1769426463" x="1417.86" y="2328.97" type="priority"/>
    <node id="1769426465" x="401.15" y="2365.44" type="right_before_left"/>
    <node id="1769426492" x="16.59" y="2549.93" type="priority"/>
    <node id="1769426512" x="52.62" y="2608.05" type="priority"/>
    <node id="1903062706" x="1940.48" y="1298.55" type="right_before_left"/>
    <node id="1915722779" x="1974.75" y="1304.54" type="right_before_left"/>
    <node id="1915722783" x="1992.71" y="1308.49" type="right_before_left"/>
    <node id="1915722786" x="2008.87" y="1312.75" type="right_before_left"/>
    <node id="1915722789" x="2025.89" y="1318.66" type="right_before_left"/>
    <node id="1915722817" x="2277.57" y="1906.29" type="priority">
        <param key="buffer_stop" value="true"/>
    </node>
    <node id="1927661563" x="1284.08" y="1843.95" type="right_before_left"/>
    <node id="1927661597" x="1276.23" y="2203.32" type="priority"/>
    <node id="1966238447" x="766.61" y="1273.23" type="priority"/>
    <node id="1966238448" x="269.46" y="1580.16" type="priority"/>
    <node id="2522708635" x="4853.21" y="1004.00" type="dead_end"/>
    <node id="2522708668" x="2339.53" y="1414.18" type="priority"/>
    <node id="3590156146" x="190.01" y="1629.73" type="priority"/>
    <node id="3590156148" x="250.25" y="1736.37" type="priority"/>
    <node id="3634694978" x="853.36" y="0.00" type="dead_end"/>
    <node id="3701916550" x="234.90" y="1981.43" type="priority"/>
    <node id="3701994334" x="2592.39" y="645.12" type="priority"/>
    <node id="4354771046" x="1952.98" y="2271.52" type="priority"/>
    <node id="4354771093" x="3084.02" y="1670.40" type="right_before_left"/>
    <node id="4354771111" x="1412.33" y="2494.14" type="right_before_left"/>
    <node id="4600346749" x="2543.36" y="2551.13" type="right_before_left"/>
    <node id="4600346752" x="2538.79" y="2604.15" type="right_before_left"/>
    <node id="4702160545" x="859.46" y="1021.32" type="priority"/>
    <node id="4702160546" x="895.75" y="965.87" type="priority"/>
    <node id="4702160548" x="910.32" y="925.82" type="priority"/>
    <node id="4702160558" x="853.43" y="918.33" type="priority"/>
    <node id="4702160559" x="830.18" y="728.67" type="priority"/>
    <node id="4702164195" x="1005.13" y="1008.18" type="priority"/>
    <node id="4702164196" x="984.78" y="1008.12" type="right_before_left"/>
    <node id="4702164197" x="1025.80" y="1076.77" type="right_before_left"/>
    <node id="4702164198" x="1043.65" y="1066.29" type="right_before_left"/>
    <node id="4702164199" x="1070.16" y="1050.53" type="priority"/>
    <node id="4702164200" x="1052.71" y="1081.84" type="priority"/>
    <node id="4702164202" x="985.28" y="1029.16" type="right_before_left"/>
    <node id="4702164203" x="1013.38" y="1053.52" type="right_before_left"/>
    <node id="4702164204" x="986.31" y="1073.21" type="right_before_left"/>
    <node id="4702164205" x="985.73" y="1048.34" type="right_before_left"/>
    <node id="4702164207" x="1046.05" y="1115.88" type="priority"/>
    <node id="4702164208" x="986.74" y="1091.41" type="priority"/>
    <node id="4709685439" x="835.83" y="6.70" type="dead_end"/>
    <node id="4787502695" x="895.86" y="1232.48" type="right_before_left"/>
    <node id="4787502696" x="1179.27" y="1038.80" type="priority"/>
    <node id="4787502701" x="1220.00" y="1100.39" type="right_before_left"/>
    <node id="4787502702" x="1112.24" y="1165.95" type="right_before_left"/>
    <node id="4787502711" x="1275.52" y="1220.25" type="right_before_left"/>
    <node id="4787503421" x="1225.88" y="1232.22" type="right_before_left"/>
    <node id="4787503427" x="1063.15" y="1105.53" type="priority"/>
    <node id="4787503428" x="1123.16" y="1267.00" type="priority"/>
    <node id="4787503429" x="1089.18" y="1300.48" type="right_before_left"/>
    <node id="4787503430" x="1109.00" y="1322.66" type="priority"/>
    <node id="4787503431" x="1109.50" y="1280.47" type="right_before_left"/>
    <node id="4787503436" x="1083.29" y="1263.61" type="right_before_left"/>
    <node id="4787503437" x="1095.02" y="1270.79" type="right_before_left"/>
    <node id="4787503439" x="962.75" y="1194.70" type="right_before_left"/>
    <node id="4787503443" x="946.25" y="1215.66" type="right_before_left"/>
    <node id="4787503446" x="879.22" y="1269.50" type="right_before_left"/>
    <node id="4787503448" x="882.57" y="1208.61" type="priority"/>
    <node id="4787503458" x="1078.74" y="1288.80" type="right_before_left"/>
    <node id="5059054615" x="1667.38" y="1304.05" type="right_before_left"/>
    <node id="5059054618" x="1693.75" y="1392.77" type="right_before_left"/>
    <node id="5122912739" x="1530.54" y="1569.18" type="priority"/>
    <node id="5321296568" x="1204.49" y="1597.03" type="priority"/>
    <node id="5321317089" x="1250.68" y="1529.59" type="priority"/>
    <node id="5321317090" x="1183.57" y="1479.13" type="right_before_left"/>
    <node id="5321317091" x="1140.25" y="1537.94" type="right_before_left"/>
    <node id="5321317097" x="1110.42" y="1577.98" type="right_before_left"/>
    <node id="5321317101" x="1082.76" y="1743.92" type="right_before_left"/>
    <node id="5321317111" x="1163.02" y="1508.97" type="right_before_left"/>
    <node id="5321317112" x="1217.36" y="1505.89" type="right_before_left"/>
    <node id="5321317115" x="1179.43" y="1583.75" type="right_before_left"/>
    <node id="5324551160" x="1081.48" y="1646.90" type="right_before_left"/>
    <node id="5324551161" x="1114.71" y="1661.45" type="right_before_left"/>
    <node id="5324551165" x="1288.49" y="1366.06" type="priority"/>
    <node id="5324551166" x="1260.33" y="1393.26" type="right_before_left"/>
    <node id="5324568544" x="1322.49" y="1394.41" type="priority"/>
    <node id="5324614583" x="1902.32" y="2135.03" type="priority"/>
    <node id="5324614586" x="1837.01" y="2032.85" type="right_before_left"/>
    <node id="5324614587" x="1892.42" y="2120.18" type="right_before_left"/>
    <node id="5324614588" x="1954.19" y="2080.58" type="right_before_left"/>
    <node id="5324614589" x="1881.18" y="2101.44" type="right_before_left"/>
    <node id="5324614590" x="1942.42" y="2061.86" type="right_before_left"/>
    <node id="5324614591" x="1871.10" y="2085.86" type="right_before_left"/>
    <node id="5324614592" x="1932.06" y="2046.28" type="right_before_left"/>
    <node id="5324614593" x="1858.78" y="2067.12" type="right_before_left"/>
    <node id="5324614594" x="1920.10" y="2027.66" type="right_before_left"/>
    <node id="5324614595" x="1848.93" y="2051.30" type="right_before_left"/>
    <node id="5324614596" x="1910.20" y="2011.96" type="right_before_left"/>
    <node id="5324614597" x="1948.77" y="2035.08" type="right_before_left"/>
    <node id="5324614600" x="1804.76" y="2177.49" type="priority"/>
    <node id="5324614601" x="1708.94" y="2032.10" type="right_before_left"/>
    <node id="5324614602" x="1792.39" y="2159.26" type="right_before_left"/>
    <node id="5324614603" x="1781.49" y="2143.05" type="right_before_left"/>
    <node id="5324614604" x="1770.23" y="2124.76" type="right_before_left"/>
    <node id="5324614605" x="1759.27" y="2109.11" type="right_before_left"/>
    <node id="5324614606" x="1747.17" y="2090.66" type="right_before_left"/>
    <node id="5324614607" x="1736.39" y="2075.22" type="right_before_left"/>
    <node id="5324614608" x="1826.17" y="2015.43" type="right_before_left"/>
    <node id="5324614609" x="1724.63" y="2057.04" type="right_before_left"/>
    <node id="5324614610" x="1814.00" y="1999.03" type="right_before_left"/>
    <node id="5324614612" x="1712.21" y="2209.32" type="priority"/>
    <node id="5324614613" x="1689.66" y="2176.27" type="right_before_left"/>
    <node id="5324614614" x="1675.71" y="2185.00" type="right_before_left"/>
    <node id="5324614616" x="1647.89" y="2131.93" type="right_before_left"/>
    <node id="5324614617" x="1625.26" y="2094.08" type="right_before_left"/>
    <node id="5324614620" x="1701.50" y="2239.64" type="priority"/>
    <node id="5324615421" x="1701.85" y="2194.45" type="right_before_left"/>
    <node id="5324615422" x="1665.56" y="2169.26" type="right_before_left"/>
    <node id="5324615423" x="1653.96" y="2150.38" type="right_before_left"/>
    <node id="5324615451" x="1375.74" y="2116.11" type="right_before_left"/>
    <node id="5324615456" x="1508.70" y="2152.90" type="right_before_left"/>
    <node id="5324670173" x="1793.72" y="1814.71" type="right_before_left"/>
    <node id="5324670180" x="1760.54" y="1784.75" type="right_before_left"/>
    <node id="5324670181" x="1771.11" y="1778.20" type="right_before_left"/>
    <node id="5324670182" x="1841.73" y="1735.30" type="priority"/>
    <node id="5324670184" x="1686.19" y="1831.15" type="priority"/>
    <node id="5324670186" x="1729.52" y="1804.10" type="right_before_left"/>
    <node id="5324670187" x="1737.64" y="1816.77" type="priority"/>
    <node id="5326246491" x="1359.42" y="1748.71" type="priority"/>
    <node id="5326246494" x="1388.67" y="1733.28" type="priority"/>
    <node id="5326360150" x="1328.03" y="1444.04" type="priority"/>
    <node id="5408675275" x="2876.26" y="1282.70" type="priority"/>
    <node id="5408675276" x="2808.46" y="1203.31" type="right_before_left"/>
    <node id="5408675277" x="2809.36" y="1074.49" type="right_before_left"/>
    <node id="5408675278" x="2791.63" y="1074.32" type="right_before_left"/>
    <node id="5408675280" x="2825.72" y="1074.65" type="right_before_left"/>
    <node id="5408675281" x="2825.67" y="1203.34" type="right_before_left"/>
    <node id="5408675282" x="2825.69" y="1151.34" type="right_before_left"/>
    <node id="5408675284" x="2841.87" y="1151.29" type="right_before_left"/>
    <node id="5408675285" x="2842.50" y="1074.79" type="right_before_left"/>
    <node id="5408675287" x="3171.78" y="1090.31" type="right_before_left"/>
    <node id="5408675290" x="3136.45" y="1218.95" type="right_before_left"/>
    <node id="5408675291" x="3138.48" y="1093.43" type="right_before_left"/>
    <node id="5408675292" x="3153.22" y="1219.33" type="right_before_left"/>
    <node id="5408675293" x="3154.43" y="1091.12" type="right_before_left"/>
    <node id="5408675294" x="3120.20" y="1201.87" type="right_before_left"/>
    <node id="5408675297" x="3122.93" y="1116.65" type="right_before_left"/>
    <node id="5408675298" x="3169.85" y="1204.26" type="right_before_left"/>
    <node id="5408675299" x="3191.61" y="1203.77" type="priority"/>
    <node id="5408675300" x="3192.30" y="1089.39" type="priority"/>
    <node id="5408675341" x="2878.46" y="1056.68" type="priority"/>
    <node id="5408675342" x="3069.72" y="1057.37" type="priority"/>
    <node id="54319287" x="2314.60" y="885.77" type="right_before_left"/>
    <node id="54319288" x="2363.98" y="885.82" type="priority"/>
    <node id="54469321" x="521.63" y="1281.64" type="priority"/>
    <node id="54486107" x="1648.42" y="1000.16" type="priority"/>
    <node id="54486111" x="1567.24" y="889.31" type="priority"/>
    <node id="54489107" x="2691.22" y="847.71" type="priority"/>
    <node id="54500916" x="2172.44" y="917.96" type="priority"/>
    <node id="54504862" x="322.47" y="945.77" type="priority"/>
    <node id="54504863" x="359.54" y="874.40" type="priority"/>
    <node id="54513277" x="1705.35" y="929.61" type="priority"/>
    <node id="54513286" x="2013.25" y="649.20" type="priority"/>
    <node id="54517321" x="2287.32" y="273.12" type="priority"/>
    <node id="54517326" x="1307.78" y="828.72" type="priority"/>
    <node id="54517329" x="1092.85" y="951.45" type="priority"/>
    <node id="54517331" x="984.23" y="984.69" type="priority"/>
    <node id="54517334" x="788.98" y="1168.94" type="priority"/>
    <node id="54517339" x="852.25" y="1148.36" type="priority"/>
    <node id="54517342" x="412.03" y="1411.86" type="priority"/>
    <node id="54517344" x="354.38" y="1455.17" type="priority"/>
    <node id="54517346" x="283.39" y="1500.43" type="priority"/>
    <node id="54517349" x="69.05" y="1640.80" type="priority"/>
    <node id="54517353" x="791.73" y="1201.06" type="priority"/>
    <node id="54519539" x="3194.77" y="650.28" type="priority"/>
    <node id="54519540" x="3094.76" y="648.22" type="priority"/>
    <node id="54519542" x="2894.25" y="646.02" type="priority"/>
    <node id="54519543" x="2793.08" y="645.74" type="priority"/>
    <node id="54519548" x="2479.35" y="647.51" type="priority"/>
    <node id="54519551" x="2215.67" y="647.53" type="priority"/>
    <node id="54519557" x="1952.14" y="597.79" type="priority"/>
    <node id="54531055" x="2969.04" y="1510.36" type="priority"/>
    <node id="54531056" x="2968.79" y="1644.48" type="priority"/>
    <node id="54535977" x="1081.52" y="835.37" type="priority"/>
    <node id="54547274" x="2314.91" y="828.11" type="priority"/>
    <node id="54547330" x="3499.55" y="1456.06" type="priority"/>
    <node id="54547337" x="3309.71" y="1473.81" type="priority"/>
    <node id="54547340" x="3217.99" y="1498.63" type="priority"/>
    <node id="54549376" x="141.96" y="1074.89" type="priority"/>
    <node id="54549380" x="192.55" y="1138.57" type="priority"/>
    <node id="54549382" x="248.43" y="1190.55" type="priority"/>
    <node id="54549409" x="326.82" y="1228.57" type="priority"/>
    <node id="54549410" x="394.32" y="1265.90" type="priority"/>
    <node id="54549412" x="429.67" y="1287.60" type="priority"/>
    <node id="54549413" x="499.39" y="1328.34" type="priority"/>
    <node id="54549414" x="579.97" y="1375.32" type="priority"/>
    <node id="54551475" x="2194.33" y="1023.54" type="priority"/>
    <node id="54551477" x="2183.98" y="999.96" type="priority"/>
    <node id="54557009" x="2050.27" y="1129.07" type="priority"/>
    <node id="54557010" x="1952.84" y="1199.11" type="priority"/>
    <node id="54565118" x="2263.67" y="1084.49" type="priority"/>
    <node id="54565135" x="2206.78" y="702.25" type="priority"/>
    <node id="54569014" x="3192.49" y="1058.22" type="priority"/>
    <node id="54569015" x="3191.21" y="1269.68" type="priority"/>
    <node id="54569144" x="3050.74" y="1502.60" type="priority"/>
    <node id="54569145" x="3059.28" y="1612.71" type="priority"/>
    <node id="54569570" x="512.59" y="590.02" type="priority"/>
    <node id="54580463" x="2891.91" y="1056.78" type="priority"/>
    <node id="54586744" x="3450.62" y="1208.21" type="priority"/>
    <node id="54586745" x="3334.87" y="1212.31" type="priority"/>
    <node id="54592428" x="2888.35" y="1511.63" type="priority"/>
    <node id="54592432" x="2725.14" y="1505.56" type="priority"/>
    <node id="54593634" x="1331.79" y="1164.31" type="priority"/>
    <node id="54593638" x="1329.93" y="1077.99" type="priority"/>
    <node id="54593641" x="1329.45" y="1030.28" type="priority"/>
    <node id="54598768" x="3247.81" y="1269.59" type="priority"/>
    <node id="54606103" x="398.40" y="990.53" type="priority"/>
    <node id="54606109" x="480.72" y="1088.70" type="priority"/>
    <node id="54609426" x="2477.93" y="876.97" type="priority"/>
    <node id="54609429" x="2477.13" y="950.23" type="priority"/>
    <node id="54609434" x="2494.24" y="1209.12" type="priority"/>
    <node id="54609669" x="2993.24" y="1057.00" type="priority"/>
    <node id="54627375" x="782.52" y="1098.37" type="priority"/>
    <node id="54651228" x="1402.23" y="980.51" type="priority"/>
    <node id="54651231" x="1493.83" y="930.39" type="priority"/>
    <node id="54659657" x="1970.21" y="938.42" type="priority"/>
    <node id="54659664" x="2119.15" y="756.86" type="priority"/>
    <node id="54660425" x="1166.59" y="339.66" type="priority"/>
    <node id="54669065" x="666.53" y="604.82" type="priority"/>
    <node id="54670469" x="47.42" y="1255.54" type="priority"/>
    <node id="54670478" x="261.53" y="1388.78" type="priority"/>
    <node id="54673203" x="2531.59" y="951.02" type="priority"/>
    <node id="54673208" x="2527.88" y="869.17" type="priority"/>
    <node id="54683468" x="2465.39" y="1366.80" type="priority"/>
    <node id="54683472" x="2304.10" y="1328.18" type="priority"/>
    <node id="54683474" x="2259.95" y="1308.98" type="priority"/>
    <node id="54693893" x="2262.65" y="889.72" type="priority"/>
    <node id="54693894" x="2182.35" y="889.55" type="priority"/>
    <node id="54695868" x="623.10" y="1020.61" type="priority"/>
    <node id="54695869" x="553.02" y="1058.40" type="priority"/>
    <node id="54700579" x="3584.90" y="1367.17" type="priority"/>
    <node id="54700583" x="2888.64" y="1457.93" type="priority"/>
    <node id="54702738" x="1992.19" y="1058.93" type="priority"/>
    <node id="54702739" x="1972.05" y="1017.94" type="priority"/>
    <node id="54703700" x="3449.79" y="1300.27" type="priority"/>
    <node id="54703701" x="3451.22" y="1112.64" type="priority"/>
    <node id="54703739" x="317.47" y="1550.21" type="priority"/>
    <node id="54706920" x="1838.74" y="2188.73" type="priority"/>
    <node id="54706922" x="2065.95" y="2416.31" type="priority"/>
    <node id="54706926" x="2092.09" y="2444.22" type="priority"/>
    <node id="54706928" x="2140.59" y="2448.85" type="priority"/>
    <node id="54706931" x="2166.73" y="2468.19" type="priority"/>
    <node id="54712421" x="3093.08" y="1057.48" type="priority"/>
    <node id="54712871" x="3226.36" y="1623.16" type="priority"/>
    <node id="54716506" x="200.34" y="784.16" type="priority"/>
    <node id="54723513" x="2640.32" y="1055.31" type="priority">
        <param key="buffer_stop" value="true"/>
    </node>
    <node id="54723518" x="2726.88" y="1640.50" type="priority"/>
    <node id="54734477" x="2245.98" y="1098.18" type="priority"/>
    <node id="54741667" x="342.59" y="1318.49" type="priority"/>
    <node id="54741668" x="345.91" y="1345.76" type="priority"/>
    <node id="54744077" x="1600.46" y="3131.80" type="priority"/>
    <node id="54746727" x="2645.02" y="1608.46" type="priority"/>
    <node id="54755246" x="664.79" y="1084.30" type="priority"/>
    <node id="54755257" x="725.73" y="1031.87" type="priority"/>
    <node id="54755277" x="176.95" y="1476.31" type="priority"/>
    <node id="54760275" x="2263.75" y="706.80" type="priority"/>
    <node id="54792260" x="2791.63" y="1056.12" type="priority"/>
    <node id="54792367" x="1517.72" y="1112.18" type="priority"/>
    <node id="54792369" x="1458.60" y="1044.30" type="priority"/>
    <node id="54792372" x="1367.43" y="929.31" type="priority"/>
    <node id="54792725" x="814.38" y="1247.88" type="priority"/>
    <node id="54793968" x="1580.58" y="1054.26" type="priority"/>
    <node id="54816667" x="3799.97" y="1055.81" type="priority"/>
    <node id="54816687" x="2690.57" y="1055.60" type="priority"/>
    <node id="54817677" x="2451.98" y="1155.75" type="priority"/>
    <node id="54817683" x="2304.95" y="1165.53" type="priority"/>
    <node id="54817687" x="2247.76" y="1151.40" type="priority"/>
    <node id="54817692" x="2426.73" y="1225.97" type="priority"/>
    <node id="54830682" x="978.54" y="2503.79" type="priority"/>
    <node id="54830684" x="1366.98" y="2645.87" type="right_before_left"/>
    <node id="54830909" x="3308.00" y="1526.61" type="priority"/>
    <node id="54841108" x="1295.09" y="1164.69" type="priority"/>
    <node id="54911284" x="1946.98" y="1100.94" type="priority"/>
    <node id="54915213" x="369.11" y="1058.97" type="priority"/>
    <node id="54936922" x="3446.08" y="1605.63" type="priority"/>
    <node id="554762860" x="1695.20" y="1271.89" type="priority"/>
    <node id="554763061" x="1693.80" y="1257.14" type="priority"/>
    <node id="554763113" x="2026.03" y="1274.88" type="priority"/>
    <node id="554764018" x="708.95" y="2053.56" type="priority"/>
    <node id="554764039" x="586.88" y="1973.65" type="priority"/>
    <node id="554764058" x="1020.51" y="1546.30" type="priority"/>
    <node id="554764120" x="688.73" y="1917.42" type="priority"/>
    <node id="554764141" x="519.64" y="2052.92" type="priority"/>
    <node id="554764230" x="1107.37" y="1429.18" type="priority"/>
    <node id="554764558" x="978.50" y="1974.30" type="priority"/>
    <node id="554764669" x="417.07" y="1965.33" type="priority"/>
    <node id="554765344" x="786.88" y="2240.31" type="priority"/>
    <node id="554807642" x="1119.43" y="1235.25" type="priority"/>
    <node id="554807980" x="1496.14" y="1452.06" type="right_before_left"/>
    <node id="554808007" x="1711.18" y="1382.45" type="right_before_left"/>
    <node id="556217023" x="835.30" y="637.26" type="priority"/>
    <node id="556217036" x="846.27" y="860.02" type="priority"/>
    <node id="564370132" x="2090.60" y="1235.34" type="priority"/>
    <node id="564370135" x="2074.28" y="1211.32" type="priority"/>
    <node id="564370142" x="2169.51" y="1152.18" type="priority"/>
    <node id="564370223" x="1932.31" y="1036.70" type="priority"/>
    <node id="564370834" x="2482.50" y="1410.04" type="priority"/>
    <node id="570726789" x="1140.66" y="2005.85" type="priority"/>
    <node id="570726801" x="1199.30" y="2130.14" type="priority"/>
    <node id="570726831" x="1025.13" y="2348.24" type="right_before_left"/>
    <node id="570726839" x="1592.43" y="2290.58" type="priority"/>
    <node id="570726844" x="1489.08" y="2396.07" type="priority"/>
    <node id="570726863" x="2599.38" y="1463.02" type="priority"/>
    <node id="570726910" x="2677.18" y="1782.22" type="priority"/>
    <node id="570726928" x="1890.50" y="2271.03" type="priority"/>
    <node id="570727058" x="2646.46" y="2469.14" type="right_before_left"/>
    <node id="570727112" x="2916.75" y="1829.20" type="right_before_left"/>
    <node id="570727162" x="2968.80" y="1912.79" type="right_before_left"/>
    <node id="570727175" x="2990.67" y="1968.72" type="right_before_left"/>
    <node id="570727193" x="3076.09" y="1826.36" type="priority"/>
    <node id="570727250" x="2880.02" y="2153.06" type="right_before_left"/>
    <node id="570727265" x="3242.30" y="2056.22" type="right_before_left"/>
    <node id="570727625" x="2295.97" y="2660.64" type="priority"/>
    <node id="570727630" x="2342.08" y="2677.18" type="right_before_left"/>
    <node id="570727683" x="2545.08" y="2712.07" type="priority"/>
    <node id="570727686" x="2597.08" y="2688.76" type="priority"/>
    <node id="570727702" x="2630.88" y="2538.72" type="right_before_left"/>
    <node id="570727970" x="809.13" y="4212.59" type="priority"/>
    <node id="570728578" x="2847.42" y="2660.66" type="right_before_left"/>
    <node id="571801849" x="1689.38" y="1226.18" type="priority"/>
    <node id="571801853" x="1585.33" y="1328.45" type="right_before_left"/>
    <node id="571801855" x="1474.76" y="1383.34" type="right_before_left"/>
    <node id="571801862" x="1671.33" y="1302.89" type="priority"/>
    <node id="571801886" x="1958.39" y="1301.53" type="right_before_left"/>
    <node id="571801948" x="787.96" y="1965.70" type="priority"/>
    <node id="571801953" x="772.02" y="1827.44" type="priority"/>
    <node id="571801985" x="1338.95" y="1490.58" type="priority"/>
    <node id="571801997" x="1391.36" y="1509.21" type="priority"/>
    <node id="571802015" x="1649.31" y="1533.62" type="right_before_left"/>
    <node id="571802016" x="1684.01" y="1528.29" type="right_before_left"/>
    <node id="571802017" x="1696.62" y="1526.89" type="priority"/>
    <node id="571802021" x="1503.65" y="1575.96" type="priority"/>
    <node id="571802029" x="1547.35" y="1561.87" type="priority"/>
    <node id="571802032" x="1630.17" y="1556.22" type="priority"/>
    <node id="571802040" x="1268.28" y="1833.01" type="priority"/>
    <node id="571802046" x="1350.66" y="1702.09" type="right_before_left"/>
    <node id="571802080" x="783.15" y="2174.99" type="priority"/>
    <node id="571802098" x="1041.41" y="2230.49" type="priority"/>
    <node id="571802107" x="1102.62" y="2259.38" type="priority"/>
    <node id="571802108" x="1110.91" y="2242.85" type="right_before_left"/>
    <node id="571802111" x="1204.09" y="2283.46" type="right_before_left"/>
    <node id="571802112" x="1183.09" y="2273.35" type="right_before_left"/>
    <node id="571802116" x="1194.06" y="2303.29" type="priority"/>
    <node id="571802140" x="979.77" y="2479.15" type="priority"/>
    <node id="571802144" x="1346.86" y="2261.54" type="priority"/>
    <node id="571802148" x="1423.35" y="2170.21" type="priority"/>
    <node id="571802201" x="1880.49" y="1452.82" type="priority"/>
    <node id="571802227" x="2069.95" y="1408.80" type="priority"/>
    <node id="571802228" x="2092.99" y="1419.46" type="priority"/>
    <node id="571802236" x="2040.21" y="1497.31" type="right_before_left"/>
    <node id="571802237" x="2063.91" y="1504.08" type="priority"/>
    <node id="571802252" x="2014.58" y="1666.33" type="right_before_left"/>
    <node id="571802336" x="2272.32" y="1838.43" type="priority"/>
    <node id="571802352" x="2004.69" y="2596.44" type="right_before_left"/>
    <node id="571802367" x="2240.45" y="2583.60" type="right_before_left"/>
    <node id="571802600" x="862.37" y="2828.08" type="priority"/>
    <node id="5788400286" x="1409.64" y="1516.31" type="right_before_left"/>
    <node id="5788400293" x="1469.88" y="1588.95" type="priority"/>
    <node id="5822251296" x="1560.08" y="1546.03" type="priority"/>
    <node id="5822251297" x="1521.75" y="1357.26" type="right_before_left"/>
    <node id="5822251299" x="1577.82" y="1539.68" type="right_before_left"/>
    <node id="5822252128" x="1528.78" y="1442.26" type="right_before_left"/>
    <node id="5822254586" x="1581.00" y="1550.10" type="priority"/>
    <node id="5822254587" x="1491.17" y="1374.23" type="right_before_left"/>
    <node id="5822254588" x="1513.57" y="1446.82" type="right_before_left"/>
    <node id="5822254590" x="1544.32" y="1551.81" type="right_before_left"/>
    <node id="5822254592" x="1593.73" y="1534.42" type="priority"/>
    <node id="5822254593" x="1647.25" y="1525.29" type="right_before_left"/>
    <node id="5822254595" x="1554.50" y="1341.99" type="right_before_left"/>
    <node id="5822254598" x="1597.44" y="1421.66" type="right_before_left"/>
    <node id="5822254599" x="1614.51" y="1416.54" type="right_before_left"/>