<?xml version="1.0" encoding="UTF-8"?>

<!-- generated on 2021-10-16 20:39:36 by Eclipse SUMO netconvert Version 1.10.0
<configuration xmlns:xsi="http://www.w3.org/2001/XMLSchema-instance" xsi:noNamespaceSchemaLocation="http://sumo.dlr.de/xsd/netconvertConfiguration.xsd">

    <input>
        <sumo-net-file value="washingtondc.net.xml"/>
    </input>

    <output>
        <plain-output-prefix value="washingtondc"/>
    </output>

    <processing>
        <geometry.min-radius.fix.railways value="false"/>
        <geometry.max-grade.fix value="false"/>
        <offset.disable-normalization value="true"/>
        <lefthand value="false"/>
    </processing>

    <junctions>
        <no-internal-links value="true"/>
        <no-turnarounds value="true"/>
        <junctions.corner-detail value="5"/>
        <junctions.limit-turn-speed value="5.5"/>
        <rectangular-lane-cut value="false"/>
    </junctions>

    <pedestrian>
        <walkingareas value="false"/>
    </pedestrian>

    <report>
        <aggregate-warnings value="5"/>
    </report>

</configuration>
-->

<tlLogics version="1.9" xmlns:xsi="http://www.w3.org/2001/XMLSchema-instance" xsi:noNamespaceSchemaLocation="http://sumo.dlr.de/xsd/tllogic_file.xsd">
    <tlLogic id="1381204541" type="static" programID="0" offset="0">
        <phase duration="39" state="GGGGGGrrrrrr"/>
        <phase duration="6"  state="yyyyyyrrrrrr"/>
        <phase duration="39" state="rrrrrrGGGGGG"/>
        <phase duration="6"  state="rrrrrryyyyyy"/>
    </tlLogic>
    <tlLogic id="1381210497" type="static" programID="0" offset="0">
        <phase duration="20" state="rrrrrGGGrrrrrrrGGGGg"/>
        <phase duration="6"  state="rrrrryyyrrrrrrryyyyy"/>
        <phase duration="6"  state="rrrrrGGGGGrrrrrrrrrr"/>
        <phase duration="6"  state="rrrrryyyyyrrrrrrrrrr"/>
        <phase duration="20" state="GGGGGrrrrrrrrrrrrrrr"/>
        <phase duration="6"  state="yyyyyrrrrrrrrrrrrrrr"/>
        <phase duration="20" state="rrrrrrrrrrGGGGGrrrrr"/>
        <phase duration="6"  state="rrrrrrrrrryyyyyrrrrr"/>
    </tlLogic>
    <tlLogic id="1381212154" type="static" programID="0" offset="0">
        <phase duration="33" state="rrrrrrrGGGGrrGGGrr"/>
        <phase duration="6"  state="rrrrrrryyyyrryyyrr"/>
        <phase duration="6"  state="rrrrrrrrrrrGGrrrGG"/>
        <phase duration="6"  state="rrrrrrrrrrryyrrryy"/>
        <phase duration="33" state="GGGGGGGGGrrrrrrrrr"/>
        <phase duration="6"  state="yyyyyyyyyrrrrrrrrr"/>
    </tlLogic>
    <tlLogic id="1381216023" type="static" programID="0" offset="0">
        <phase duration="27" state="GGGrrrrrrGGGGrrrrrr"/>
        <phase duration="6"  state="yyyrrrrrryyyyrrrrrr"/>
        <phase duration="6"  state="rrrGGrrrrrrrrGGrrrr"/>
        <phase duration="6"  state="rrryyrrrrrrrryyrrrr"/>
        <phase duration="27" state="rrrrrGGggrrrrrrGGrr"/>
        <phase duration="6"  state="rrrrryyggrrrrrryyrr"/>
        <phase duration="6"  state="rrrrrrrGGrrrrrrrrGG"/>
        <phase duration="6"  state="rrrrrrryyrrrrrrrryy"/>
    </tlLogic>
    <tlLogic id="1381307995" type="static" programID="0" offset="0">
        <phase duration="40" state="GGGGrrr"/>
        <phase duration="5"  state="yyyyrrr"/>
        <phase duration="40" state="rrrrGGG"/>
        <phase duration="5"  state="rrrryyy"/>
    </tlLogic>
    <tlLogic id="1381307998" type="static" programID="0" offset="0">
        <phase duration="39" state="GGGGgrrrrrGGGgg"/>
        <phase duration="6"  state="yyyyyrrrrryyyyy"/>
        <phase duration="39" state="rrrrrGGGGGrrrrG"/>
        <phase duration="6"  state="rrrrryyyyyrrrry"/>
    </tlLogic>
    <tlLogic id="1381307999" type="static" programID="0" offset="0">
        <phase duration="39" state="GGGGGGrrrrrr"/>
        <phase duration="6"  state="yyyyyyrrrrrr"/>
        <phase duration="39" state="rrrrrrGGGGGG"/>
        <phase duration="6"  state="rrrrrryyyyyy"/>
    </tlLogic>
    <tlLogic id="1443727088" type="static" programID="0" offset="0">
        <phase duration="40" state="GGgrrrGgg"/>
        <phase duration="5"  state="yyyrrryyy"/>
        <phase duration="40" state="rrrGGGrrr"/>
        <phase duration="5"  state="rrryyyrrr"/>
    </tlLogic>
    <tlLogic id="2504794158" type="static" programID="0" offset="0">
        <phase duration="39" state="rrrrrGGGGGggrrrrrGGGGGgg"/>
        <phase duration="6"  state="rrrrryyyyyyyrrrrryyyyyyy"/>
        <phase duration="39" state="GGGggrrrrrrrGGGggrrrrrrr"/>
        <phase duration="6"  state="yyyyyrrrrrrryyyyyrrrrrrr"/>
    </tlLogic>
    <tlLogic id="2504806041" type="static" programID="0" offset="0">
        <phase duration="27" state="rrrrGGGGgrrrrrGGGGg"/>
        <phase duration="6"  state="rrrryyyygrrrrryyyyg"/>
        <phase duration="6"  state="rrrrrrrrGrrrrrrrrrG"/>
        <phase duration="6"  state="rrrrrrrryrrrrrrrrry"/>
        <phase duration="27" state="GGGgrrrrrGGGggrrrrr"/>
        <phase duration="6"  state="yyyyrrrrryyyggrrrrr"/>
        <phase duration="6"  state="rrrrrrrrrGGGGGrrrrr"/>
        <phase duration="6"  state="rrrrrrrrryyyyyrrrrr"/>
    </tlLogic>
    <tlLogic id="262543404" type="static" programID="0" offset="0">
        <phase duration="24" state="GGGrrrrrrrr"/>
        <phase duration="6"  state="yyyrrrrrrrr"/>
        <phase duration="24" state="rrrGGGGGrrr"/>
        <phase duration="6"  state="rrryyyyyrrr"/>
        <phase duration="24" state="rrrrrrrrGGG"/>
        <phase duration="6"  state="rrrrrrrryyy"/>
    </tlLogic>
    <tlLogic id="2999157096" type="static" programID="0" offset="0">
        <phase duration="39" state="GGggrrrGGGGg"/>
        <phase duration="6"  state="yyyyrrryyyyy"/>
        <phase duration="39" state="rrrrGGgGrrrr"/>
        <phase duration="6"  state="rrrryyyyrrrr"/>
    </tlLogic>
    <tlLogic id="3001569202" type="static" programID="0" offset="0">
        <phase duration="33" state="GrrGGgrrr"/>
        <phase duration="6"  state="yrryyyrrr"/>
        <phase duration="6"  state="GGGrrrrrr"/>
        <phase duration="6"  state="yyyrrrrrr"/>
        <phase duration="33" state="rrrrrrGGG"/>
        <phase duration="6"  state="rrrrrryyy"/>
    </tlLogic>
    <tlLogic id="3011565329" type="static" programID="0" offset="0">
        <phase duration="39" state="GggrrrGGg"/>
        <phase duration="6"  state="yyyrrryyy"/>
        <phase duration="39" state="rrrGGgGrr"/>
        <phase duration="6"  state="rrryyyyrr"/>
    </tlLogic>
    <tlLogic id="3012429028" type="static" programID="0" offset="0">
        <phase duration="40" state="GGggrrrrGGGggrrrr"/>
        <phase duration="5"  state="yyyyrrrryyyyyrrrr"/>
        <phase duration="40" state="rrrrGGggrrrrrGGgg"/>
        <phase duration="5"  state="rrrryyyyrrrrryyyy"/>
    </tlLogic>
    <tlLogic id="3012535014" type="static" programID="0" offset="0">
        <phase duration="80" state="GGggGGGg"/>
        <phase duration="5"  state="yyyyyyyy"/>
        <phase duration="5"  state="rrrrrrrr"/>
    </tlLogic>
    <tlLogic id="3012535144" type="static" programID="0" offset="0">
        <phase duration="35" state="GGrrrrrrGGrrrrrr"/>
        <phase duration="5"  state="yyrrrrrryyrrrrrr"/>
        <phase duration="6"  state="rrGGrrrrrrGGrrrr"/>
        <phase duration="5"  state="rryyrrrrrryyrrrr"/>
        <phase duration="34" state="rrrrGGggrrrrGGgg"/>
        <phase duration="5"  state="rrrryyyyrrrryyyy"/>
    </tlLogic>
    <tlLogic id="3012784288" type="static" programID="0" offset="0">
        <phase duration="39" state="GGGggrrrrGGGggrrrr"/>
        <phase duration="6"  state="yyyyyrrrryyyyyrrrr"/>
        <phase duration="39" state="rrrrrGGggrrrrrGGgg"/>
        <phase duration="6"  state="rrrrryyyyrrrrryyyy"/>
    </tlLogic>
    <tlLogic id="3012784293" type="static" programID="0" offset="0">
        <phase duration="39" state="GGGggrrrrrGGGggrrrrr"/>
        <phase duration="6"  state="yyyyyrrrrryyyyyrrrrr"/>
        <phase duration="39" state="rrrrrGGGggrrrrrGGGgg"/>
        <phase duration="6"  state="rrrrryyyyyrrrrryyyyy"/>
    </tlLogic>
    <tlLogic id="3012829798" type="static" programID="0" offset="0">
        <phase duration="39" state="GGggrrrrGGggrrrr"/>
        <phase duration="6"  state="yyyyrrrryyyyrrrr"/>
        <phase duration="39" state="rrrrGGggrrrrGGgg"/>
        <phase duration="6"  state="rrrryyyyrrrryyyy"/>
    </tlLogic>
    <tlLogic id="3013407820" type="static" programID="0" offset="0">
        <phase duration="39" state="rrrrrGGGggrrrrrGGGgg"/>
        <phase duration="6"  state="rrrrryyyyyrrrrryyyyy"/>
        <phase duration="39" state="GGGggrrrrrGGGggrrrrr"/>
        <phase duration="6"  state="yyyyyrrrrryyyyyrrrrr"/>
    </tlLogic>
    <tlLogic id="3013488879" type="static" programID="0" offset="0">
        <phase duration="39" state="GGGggrrrGGGggrrrr"/>
        <phase duration="6"  state="yyyyyrrryyyyyrrrr"/>
        <phase duration="39" state="rrrrrGGgrrrrrGGgg"/>
        <phase duration="6"  state="rrrrryyyrrrrryyyy"/>
    </tlLogic>
    <tlLogic id="3016605388" type="static" programID="0" offset="0">
        <phase duration="39" state="GGgrrrrGGgg"/>
        <phase duration="6"  state="yyyrrrryyyy"/>
        <phase duration="39" state="rrrGGGGrrrr"/>
        <phase duration="6"  state="rrryyyyrrrr"/>
    </tlLogic>
    <tlLogic id="3027832454" type="static" programID="0" offset="0">
        <phase duration="39" state="GGGGgrrrrGGGg"/>
        <phase duration="6"  state="yyyyyrrrryyyy"/>
        <phase duration="39" state="GrrrrGGGGrrrr"/>
        <phase duration="6"  state="yrrrryyyyrrrr"/>
    </tlLogic>
    <tlLogic id="3378110162" type="static" programID="0" offset="0">
        <phase duration="33" state="rrrrGGGGgrrrrGGGg"/>
        <phase duration="6"  state="rrrryyyyyrrrryyyy"/>
        <phase duration="33" state="GGrrrrrrrGGGgrrrr"/>
        <phase duration="6"  state="yyrrrrrrryyyyrrrr"/>
        <phase duration="6"  state="GGGGrrrrrrrrrrrrr"/>
        <phase duration="6"  state="yyyyrrrrrrrrrrrrr"/>
    </tlLogic>
    <tlLogic id="3378222897" type="static" programID="0" offset="0">
        <phase duration="39" state="rrrrrGGggGGGg"/>
        <phase duration="6"  state="rrrrryyyyyyyy"/>
        <phase duration="39" state="GGGGGrrrrrrrr"/>
        <phase duration="6"  state="yyyyyrrrrrrrr"/>
    </tlLogic>
    <tlLogic id="3378222899" type="static" programID="0" offset="0">
        <phase duration="29" state="rrrrGGGrrrrrrGGrr"/>
        <phase duration="5"  state="rrrryyyrrrrrryyrr"/>
        <phase duration="6"  state="rrrrrrrGGrrrrrrGG"/>
        <phase duration="5"  state="rrrrrrryyrrrrrryy"/>
        <phase duration="29" state="GGrrrrrrrGGrrrrrr"/>
        <phase duration="5"  state="yyrrrrrrryyrrrrrr"/>
        <phase duration="6"  state="rrGGrrrrrrrGGrrrr"/>
        <phase duration="5"  state="rryyrrrrrrryyrrrr"/>
    </tlLogic>
    <tlLogic id="3669554855" type="static" programID="0" offset="0">
        <phase duration="39" state="GGGGggrrrrGGGGggrrrr"/>
        <phase duration="6"  state="yyyyyyrrrryyyyyyrrrr"/>
        <phase duration="39" state="rrrrrrGGGgrrrrrrGGGg"/>
        <phase duration="6"  state="rrrrrryyyyrrrrrryyyy"/>
    </tlLogic>
    <tlLogic id="3669554857" type="static" programID="0" offset="0">
        <phase duration="40" state="rrrrGGggrrrrGGgg"/>
        <phase duration="5"  state="rrrryyyyrrrryyyy"/>
        <phase duration="40" state="GGggrrrrGGggrrrr"/>
        <phase duration="5"  state="yyyyrrrryyyyrrrr"/>
    </tlLogic>
    <tlLogic id="3669554865" type="static" programID="0" offset="0">
        <phase duration="33" state="GGrrGGGgrrrrrr"/>
        <phase duration="6"  state="yyrryyyyrrrrrr"/>
        <phase duration="6"  state="GGGGrrrrrrrrrr"/>
        <phase duration="6"  state="yyyyrrrrrrrrrr"/>
        <phase duration="33" state="rrrrrrrrGGGGGG"/>
        <phase duration="6"  state="rrrrrrrryyyyyy"/>
    </tlLogic>
    <tlLogic id="3669554868" type="static" programID="0" offset="0">
        <phase duration="33" state="rrrrrGrrGGg"/>
        <phase duration="6"  state="rrrrryrryyy"/>
        <phase duration="6"  state="rrrrrGGGrrr"/>
        <phase duration="6"  state="rrrrryyyrrr"/>
        <phase duration="33" state="GGGGGrrrrrr"/>
        <phase duration="6"  state="yyyyyrrrrrr"/>
    </tlLogic>
    <tlLogic id="3669554871" type="static" programID="0" offset="0">
        <phase duration="39" state="rrrrGggGGg"/>
        <phase duration="6"  state="rrrryyyyyy"/>
        <phase duration="39" state="GGGGrrrrrr"/>
        <phase duration="6"  state="yyyyrrrrrr"/>
    </tlLogic>
    <tlLogic id="3669554874" type="static" programID="0" offset="0">
        <phase duration="39" state="GGggGGGgrrrr"/>
        <phase duration="6"  state="yyyyyyyyrrrr"/>
        <phase duration="39" state="rrrrrrrrGGGG"/>
        <phase duration="6"  state="rrrrrrrryyyy"/>
    </tlLogic>
    <tlLogic id="3669554878" type="static" programID="0" offset="0">
        <phase duration="33" state="GGGGggrrrrGGGGggrrrr"/>
        <phase duration="6"  state="yyyyyyrrrryyyyyyrrrr"/>
        <phase duration="33" state="rrrrrrGGrrrrrrrrGGrr"/>
        <phase duration="6"  state="rrrrrryyrrrrrrrryyrr"/>
        <phase duration="6"  state="rrrrrrrrGGrrrrrrrrGG"/>
        <phase duration="6"  state="rrrrrrrryyrrrrrrrryy"/>
    </tlLogic>
    <tlLogic id="3670756345" type="static" programID="0" offset="0">
        <phase duration="33" state="rrrrGrrGGg"/>
        <phase duration="6"  state="rrrryrryyy"/>
        <phase duration="6"  state="rrrrGGGrrr"/>
        <phase duration="6"  state="rrrryyyrrr"/>
        <phase duration="33" state="GGGGrrrrrr"/>
        <phase duration="6"  state="yyyyrrrrrr"/>
    </tlLogic>
    <tlLogic id="3670756365" type="static" programID="0" offset="0">
        <phase duration="29" state="GGrrrrrrGGrrrrrr"/>
        <phase duration="5"  state="yyrrrrrryyrrrrrr"/>
        <phase duration="6"  state="rrGGrrrrrrGGrrrr"/>
        <phase duration="5"  state="rryyrrrrrryyrrrr"/>
        <phase duration="29" state="rrrrGGrrrrrrGGrr"/>
        <phase duration="5"  state="rrrryyrrrrrryyrr"/>
        <phase duration="6"  state="rrrrrrGGrrrrrrGG"/>
        <phase duration="5"  state="rrrrrryyrrrrrryy"/>
    </tlLogic>
    <tlLogic id="4001201376" type="static" programID="0" offset="0">
        <phase duration="33" state="GGggrrrrGGGgrrrrrr"/>
        <phase duration="6"  state="yyyyrrrryyyyrrrrrr"/>
        <phase duration="33" state="rrrrGGggrrrrGGGGGr"/>
        <phase duration="6"  state="rrrryyggrrrryyyyyr"/>
        <phase duration="6"  state="rrrrrrGGrrrrrrrrrG"/>
        <phase duration="6"  state="rrrrrryyrrrrrrrrry"/>
    </tlLogic>
    <tlLogic id="4001470337" type="static" programID="0" offset="0">
        <phase duration="39" state="GGGGGGrrrrrr"/>
        <phase duration="6"  state="yyyyyyrrrrrr"/>
        <phase duration="39" state="rrrrrrGGGGGG"/>
        <phase duration="6"  state="rrrrrryyyyyy"/>
    </tlLogic>
    <tlLogic id="49722994" type="static" programID="0" offset="0">
        <phase duration="37" state="GGGGGrrrrr"/>
        <phase duration="8"  state="yyyyyrrrrr"/>
        <phase duration="37" state="rrrrrGGGGG"/>
        <phase duration="8"  state="rrrrryyyyy"/>
    </tlLogic>
    <tlLogic id="49732286" type="static" programID="0" offset="0">
        <phase duration="30" state="rrrrGGGGGggrrrrrrGGGGGgg"/>
        <phase duration="8"  state="rrrryyyyyyyrrrrrryyyyyyy"/>
        <phase duration="30" state="GGrrrrrrrrrGGGGrrrrrrrrr"/>
        <phase duration="8"  state="yyrrrrrrrrryyyyrrrrrrrrr"/>
        <phase duration="6"  state="rrGGrrrrrrrrrrrGGrrrrrrr"/>
        <phase duration="8"  state="rryyrrrrrrrrrrryyrrrrrrr"/>
    </tlLogic>
    <tlLogic id="49741647" type="static" programID="0" offset="0">
        <phase duration="40" state="rrrrrGGGGGGGGGgg"/>
        <phase duration="5"  state="rrrrryyyyyyyyyyy"/>
        <phase duration="40" state="GGGGgGrrrrrrrrrr"/>
        <phase duration="5"  state="yyyyyyrrrrrrrrrr"/>
    </tlLogic>
    <tlLogic id="49741652" type="static" programID="0" offset="0">
        <phase duration="20" state="rrrGGgGrrrrr"/>
        <phase duration="5"  state="rrryyyyrrrrr"/>
        <phase duration="22" state="GrrrrrGGgrrr"/>
        <phase duration="5"  state="yrrrrryyyrrr"/>
        <phase duration="6"  state="GGGrrrrrrrrr"/>
        <phase duration="5"  state="yyyrrrrrrrrr"/>
        <phase duration="22" state="rrrrrrrrrGGG"/>
        <phase duration="5"  state="rrrrrrrrryyy"/>
    </tlLogic>
    <tlLogic id="49741673" type="static" programID="0" offset="0">
        <phase duration="39" state="GGGGrrr"/>
        <phase duration="6"  state="yyyyrrr"/>
        <phase duration="39" state="rrrrGGG"/>
        <phase duration="6"  state="rrrryyy"/>
    </tlLogic>
    <tlLogic id="49741695" type="static" programID="0" offset="0">
        <phase duration="40" state="rrrrrGggGGg"/>
        <phase duration="5"  state="rrrrryyyyyy"/>
        <phase duration="40" state="GGGGGrrrrrr"/>
        <phase duration="5"  state="yyyyyrrrrrr"/>
    </tlLogic>
    <tlLogic id="49741710" type="static" programID="0" offset="0">
        <phase duration="40" state="GGGGGrrrrr"/>
        <phase duration="5"  state="yyyyyrrrrr"/>
        <phase duration="40" state="rrrrrGGGGG"/>
        <phase duration="5"  state="rrrrryyyyy"/>
    </tlLogic>
    <tlLogic id="49741715" type="static" programID="0" offset="0">
        <phase duration="39" state="GGGGGrrrrrr"/>
        <phase duration="6"  state="yyyyyrrrrrr"/>
        <phase duration="39" state="rrrrrGGGGGG"/>
        <phase duration="6"  state="rrrrryyyyyy"/>
    </tlLogic>
    <tlLogic id="49741717" type="static" programID="0" offset="0">
        <phase duration="79" state="GGGG"/>
        <phase duration="6"  state="yyyy"/>
        <phase duration="5"  state="rrrr"/>
    </tlLogic>
    <tlLogic id="49745628" type="static" programID="0" offset="0">
        <phase duration="33" state="GGGGrrrrrrGGGGgrrrr"/>
        <phase duration="6"  state="yyyyrrrrrryyyyyrrrr"/>
        <phase duration="6"  state="GGGGGGrrrrrrrrrrrrr"/>
        <phase duration="6"  state="yyyyyyrrrrrrrrrrrrr"/>
        <phase duration="33" state="rrrrrrGGGgrrrrrGGGg"/>
        <phase duration="6"  state="rrrrrryyyyrrrrryyyy"/>
    </tlLogic>
    <tlLogic id="49745629" type="static" programID="0" offset="0">
        <phase duration="33" state="GGGGrrrrrrGGGGrrrrrr"/>
        <phase duration="6"  state="yyyyrrrrrryyyyrrrrrr"/>
        <phase duration="6"  state="rrrrGGrrrrrrrrGGrrrr"/>
        <phase duration="6"  state="rrrryyrrrrrrrryyrrrr"/>
        <phase duration="33" state="rrrrrrGGggrrrrrrGGgg"/>
        <phase duration="6"  state="rrrrrryyyyrrrrrryyyy"/>
    </tlLogic>
    <tlLogic id="49745632" type="static" programID="0" offset="0">
        <phase duration="33" state="GGGrrGGGGgrrrrrrr"/>
        <phase duration="6"  state="yyyrryyyyyrrrrrrr"/>
        <phase duration="6"  state="GGGGGrrrrrrrrrrrr"/>
        <phase duration="6"  state="yyyyyrrrrrrrrrrrr"/>
        <phase duration="33" state="rrrrrrrrrrGGGGGGG"/>
        <phase duration="6"  state="rrrrrrrrrryyyyyyy"/>
    </tlLogic>
    <tlLogic id="49745636" type="static" programID="0" offset="0">
        <phase duration="33" state="GGGGgrrrrrrGGGrr"/>
        <phase duration="6"  state="yyyyyrrrrrryyyrr"/>
        <phase duration="6"  state="rrrrrrrrrrrGGGGG"/>
        <phase duration="6"  state="rrrrrrrrrrryyyyy"/>
        <phase duration="33" state="rrrrGGGGGGGrrrrr"/>
        <phase duration="6"  state="rrrryyyyyyyrrrrr"/>
    </tlLogic>
    <tlLogic id="49745644" type="static" programID="0" offset="0">
        <phase duration="39" state="GGGggGGGGgrrrrrr"/>
        <phase duration="6"  state="yyyyyyyyyyrrrrrr"/>
        <phase duration="39" state="rrrrrrrrrrGGGGGG"/>
        <phase duration="6"  state="rrrrrrrrrryyyyyy"/>
    </tlLogic>
    <tlLogic id="49748716" type="static" programID="0" offset="0">
        <phase duration="33" state="rrrrrGGGGgGGGgg"/>
        <phase duration="6"  state="rrrrryyyyyyyygg"/>
        <phase duration="6"  state="rrrrrrrrrrGGGGG"/>
        <phase duration="6"  state="rrrrrrrrrryyyyy"/>
        <phase duration="33" state="GGGGgGrrrrrrrrr"/>
        <phase duration="6"  state="yyyyyyrrrrrrrrr"/>
    </tlLogic>
    <tlLogic id="49748720" type="static" programID="0" offset="0">
        <phase duration="33" state="GGGGGggrrrrrrGGGGGggrrrrrr"/>
        <phase duration="6"  state="yyyyyyyrrrrrryyyyyyyrrrrrr"/>
        <phase duration="33" state="rrrrrrrGGGGrrrrrrrrrGGGGrr"/>
        <phase duration="6"  state="rrrrrrryyyyrrrrrrrrryyyyrr"/>
        <phase duration="6"  state="rrrrrrrrrrrGGrrrrrrrrrrrGG"/>
        <phase duration="6"  state="rrrrrrrrrrryyrrrrrrrrrrryy"/>
    </tlLogic>
    <tlLogic id="49748725" type="static" programID="0" offset="0">
        <phase duration="39" state="rrrrrrrrGGGGGggGGGGGgg"/>
        <phase duration="6"  state="rrrrrrrryyyyyyyyyyyyyy"/>
        <phase duration="39" state="GGGGGGGgGrrrrrrrrrrrrr"/>
        <phase duration="6"  state="yyyyyyyyyrrrrrrrrrrrrr"/>
    </tlLogic>
    <tlLogic id="49748779" type="static" programID="0" offset="0">
        <phase duration="39" state="rrrrrrGGGGgGGGG"/>
        <phase duration="6"  state="rrrrrryyyyyyyyy"/>
        <phase duration="39" state="GGGGGGrrrrrrrrr"/>
        <phase duration="6"  state="yyyyyyrrrrrrrrr"/>
    </tlLogic>
    <tlLogic id="49748781" type="static" programID="0" offset="0">
        <phase duration="40" state="rrrrrGGGGGgGGGGg"/>
        <phase duration="5"  state="rrrrryyyyyyyyyyy"/>
        <phase duration="40" state="GGGGgGrrrrrrrrrr"/>
        <phase duration="5"  state="yyyyyyrrrrrrrrrr"/>
    </tlLogic>
    <tlLogic id="49748784" type="static" programID="0" offset="0">
        <phase duration="38" state="GGGgrrrrGGGG"/>
        <phase duration="3"  state="yyygrrrryyyy"/>
        <phase duration="6"  state="GGGGrrrrrrrr"/>
        <phase duration="3"  state="yyyyrrrrrrrr"/>
        <phase duration="37" state="GGGGGGGgrrrr"/>
        <phase duration="3"  state="yyyyyyyyrrrr"/>
    </tlLogic>
    <tlLogic id="49748788" type="static" programID="0" offset="0">
        <phase duration="35" state="rrrrrrGGGGgGGGg"/>
        <phase duration="5"  state="rrrrrryyyyyyyyg"/>
        <phase duration="6"  state="rrrrrrrrrrrGGGG"/>
        <phase duration="5"  state="rrrrrrrrrrryyyy"/>
        <phase duration="34" state="GGGGGgGrrrrrrrr"/>
        <phase duration="5"  state="yyyyyyyrrrrrrrr"/>
    </tlLogic>
    <tlLogic id="49749106" type="static" programID="0" offset="0">
        <phase duration="24" state="rrrrrrrrrrrGGGG"/>
        <phase duration="6"  state="rrrrrrrrrrryyyy"/>
        <phase duration="24" state="rrrrGGGGGGGrrrr"/>
        <phase duration="6"  state="rrrryyyyyyyrrrr"/>
        <phase duration="24" state="GGGgGrrrrrrrrrr"/>
        <phase duration="6"  state="yyyyyrrrrrrrrrr"/>
    </tlLogic>
    <tlLogic id="49750826" type="static" programID="0" offset="0">
        <phase duration="39" state="GGGGrrrrGG"/>
        <phase duration="6"  state="yyyyrrrryy"/>
        <phase duration="39" state="rrrrGGGGGG"/>
        <phase duration="6"  state="rrrryyyyyy"/>
    </tlLogic>
    <tlLogic id="49750830" type="static" programID="0" offset="0">
        <phase duration="24" state="rrrrrrrrrrrrGGgGGGGg"/>
        <phase duration="6"  state="rrrrrrrrrrrryyyyyyyy"/>
        <phase duration="24" state="GGGGGGrrrrrGrrrrrrrr"/>
        <phase duration="6"  state="yyyyyyrrrrryrrrrrrrr"/>
        <phase duration="24" state="rrrrrrGGGGGGrrrrrrrr"/>
        <phase duration="6"  state="rrrrrryyyyyyrrrrrrrr"/>
    </tlLogic>
    <tlLogic id="49762191" type="static" programID="0" offset="0">
        <phase duration="40" state="GGgGggrrr"/>
        <phase duration="5"  state="yyyyyyrrr"/>
        <phase duration="40" state="GrrrrrGGg"/>
        <phase duration="5"  state="yrrrrryyy"/>
    </tlLogic>
    <tlLogic id="49762202" type="static" programID="0" offset="0">
        <phase duration="39" state="GGGggrrrrGGGggrrrr"/>
        <phase duration="6"  state="yyyyyrrrryyyyyrrrr"/>
        <phase duration="39" state="rrrrrGGggrrrrrGGgg"/>
        <phase duration="6"  state="rrrrryyyyrrrrryyyy"/>
    </tlLogic>
    <tlLogic id="49762207" type="static" programID="0" offset="0">
        <phase duration="39" state="GGgrrrrrrGgg"/>
        <phase duration="6"  state="yyyrrrrrryyy"/>
        <phase duration="39" state="rrrGGGGGGrrr"/>
        <phase duration="6"  state="rrryyyyyyrrr"/>
    </tlLogic>
    <tlLogic id="49762210" type="static" programID="0" offset="0">
        <phase duration="33" state="GGGGrrrrrrGGGGrrrrrr"/>
        <phase duration="6"  state="yyyyrrrrrryyyyrrrrrr"/>
        <phase duration="6"  state="rrrrGGrrrrrrrrGGrrrr"/>
        <phase duration="6"  state="rrrryyrrrrrrrryyrrrr"/>
        <phase duration="33" state="rrrrrrGGggrrrrrrGGgg"/>
        <phase duration="6"  state="rrrrrryyyyrrrrrryyyy"/>
    </tlLogic>
    <tlLogic id="49762221" type="static" programID="0" offset="0">
        <phase duration="39" state="GGgrrrGGGGg"/>
        <phase duration="6"  state="yyyrrryyyyy"/>
        <phase duration="39" state="rrrGGgGrrrr"/>
        <phase duration="6"  state="rrryyyyrrrr"/>
    </tlLogic>
    <tlLogic id="49762238" type="static" programID="0" offset="0">
        <phase duration="39" state="GGrrrr"/>
        <phase duration="6"  state="yyrrrr"/>
        <phase duration="39" state="rrGGGG"/>
        <phase duration="6"  state="rryyyy"/>
    </tlLogic>
    <tlLogic id="49762243" type="static" programID="0" offset="0">
        <phase duration="42" state="GGGGGrrr"/>
        <phase duration="3"  state="yyyyyrrr"/>
        <phase duration="42" state="rrrrrGGG"/>
        <phase duration="3"  state="rrrrryyy"/>
    </tlLogic>
    <tlLogic id="49762251" type="static" programID="0" offset="0">
        <phase duration="40" state="GGrrrr"/>
        <phase duration="5"  state="yyrrrr"/>
        <phase duration="40" state="rrGGGG"/>
        <phase duration="5"  state="rryyyy"/>
    </tlLogic>
    <tlLogic id="49762264" type="static" programID="0" offset="0">
        <phase duration="42" state="GGrr"/>
        <phase duration="3"  state="yyrr"/>
        <phase duration="42" state="rrGG"/>
        <phase duration="3"  state="rryy"/>
    </tlLogic>
    <tlLogic id="49762379" type="static" programID="0" offset="0">
        <phase duration="35" state="rrrrGGrrrrrrGGrr"/>
        <phase duration="5"  state="rrrryyrrrrrryyrr"/>
        <phase duration="6"  state="rrrrrrGGrrrrrrGG"/>
        <phase duration="5"  state="rrrrrryyrrrrrryy"/>
        <phase duration="34" state="GGggrrrrGGggrrrr"/>
        <phase duration="5"  state="yyyyrrrryyyyrrrr"/>
    </tlLogic>
    <tlLogic id="49762383" type="static" programID="0" offset="0">
        <phase duration="39" state="GGGggrrrrGGGGg"/>
        <phase duration="6"  state="yyyyyrrrryyyyy"/>
        <phase duration="39" state="rrrrrGGGgGrrrr"/>
        <phase duration="6"  state="rrrrryyyyyrrrr"/>
    </tlLogic>
    <tlLogic id="49764249" type="static" programID="0" offset="0">
        <phase duration="24" state="GGgrrGGgrr"/>
        <phase duration="6"  state="yyyrryyyrr"/>
        <phase duration="24" state="rrrrrrrrGG"/>
        <phase duration="6"  state="rrrrrrrryy"/>
        <phase duration="24" state="rrrGGrrrrr"/>
        <phase duration="6"  state="rrryyrrrrr"/>
    </tlLogic>
    <tlLogic id="49764251" type="static" programID="0" offset="0">
        <phase duration="39" state="GGggrrrGGGGg"/>
        <phase duration="6"  state="yyyyrrryyyyy"/>
        <phase duration="39" state="rrrrGGgGrrrr"/>
        <phase duration="6"  state="rrrryyyyrrrr"/>
    </tlLogic>
    <tlLogic id="49764271" type="static" programID="0" offset="0">
        <phase duration="39" state="GGGGGgGGrrrrrrr"/>
        <phase duration="6"  state="yyyyyyyyrrrrrrr"/>
        <phase duration="39" state="rrrrrrGGGGGGGGG"/>
        <phase duration="6"  state="rrrrrryyyyyyyyy"/>
    </tlLogic>
    <tlLogic id="49764296" type="static" programID="0" offset="0">
        <phase duration="39" state="GGgrrrrrrGgg"/>
        <phase duration="6"  state="yyyrrrrrryyy"/>
        <phase duration="39" state="rrrGGGGGGrrr"/>
        <phase duration="6"  state="rrryyyyyyrrr"/>
    </tlLogic>
    <tlLogic id="49764309" type="static" programID="0" offset="0">
        <phase duration="33" state="GGrrGGGGgrrrr"/>
        <phase duration="6"  state="yyrryyyyyrrrr"/>
        <phase duration="6"  state="GGGGrrrrrrrrr"/>
        <phase duration="6"  state="yyyyrrrrrrrrr"/>
        <phase duration="33" state="rrrGrrrrrGGGG"/>
        <phase duration="6"  state="rrryrrrrryyyy"/>
    </tlLogic>
    <tlLogic id="49765155" type="static" programID="0" offset="0">
        <phase duration="24" state="rrGGGGGGrrr"/>
        <phase duration="6"  state="rryyyyyyrrr"/>
        <phase duration="24" state="rrrrrrrrGGG"/>
        <phase duration="6"  state="rrrrrrrryyy"/>
        <phase duration="24" state="GGgrrrrrGrr"/>
        <phase duration="6"  state="yyyrrrrryrr"/>
    </tlLogic>
    <tlLogic id="49767189" type="static" programID="0" offset="0">
        <phase duration="24" state="GGGgrrrGGggrrr"/>
        <phase duration="6"  state="yyyyrrryyyyrrr"/>
        <phase duration="24" state="rrrrGGGrrrrrrr"/>
        <phase duration="6"  state="rrrryyyrrrrrrr"/>
        <phase duration="24" state="GrrrrrrrrrrGGg"/>
        <phase duration="6"  state="yrrrrrrrrrryyy"/>
    </tlLogic>
    <tlLogic id="49767196" type="static" programID="0" offset="0">
        <phase duration="39" state="GGGGrrr"/>
        <phase duration="6"  state="yyyyrrr"/>
        <phase duration="39" state="rrrrGGG"/>
        <phase duration="6"  state="rrrryyy"/>
    </tlLogic>
    <tlLogic id="49770640" type="static" programID="0" offset="0">
        <phase duration="39" state="GGGgrrrrrrGGgg"/>
        <phase duration="6"  state="yyyyrrrrrryyyy"/>
        <phase duration="39" state="rrrrGGGGGGrrrr"/>