<?xml version="1.0" encoding="UTF-8"?>

<!-- generated on 2021-10-16 20:40:27 by Eclipse SUMO polyconvert Version 1.10.0
<configuration xmlns:xsi="http://www.w3.org/2001/XMLSchema-instance" xsi:noNamespaceSchemaLocation="http://sumo.dlr.de/xsd/polyconvertConfiguration.xsd">

    <input>
        <net-file value="washingtondc.net.xml"/>
        <osm-files value="washingtondc.osm.xml"/>
    </input>

    <output>
        <output-file value="washingtondc.poly.xml"/>
    </output>

    <processing>
        <poi-layer-offset value="5"/>
    </processing>

</configuration>
-->

<additional xmlns:xsi="http://www.w3.org/2001/XMLSchema-instance" xsi:noNamespaceSchemaLocation="http://sumo.dlr.de/xsd/additional_file.xsd">
    <location netOffset="-321951.51,-4306578.06" convBoundary="-1549.29,-1144.89,3807.38,5723.75" origBoundary="-77.070987,38.879932,-77.009194,38.942193" projParameter="+proj=utm +zone=18 +ellps=WGS84 +datum=WGS84 +units=m +no_defs"/>

    <poly id="108286357" type="tourism" color="207,245,201" fill="1" layer="-2.00" shape="284.643297,1506.607206 351.037747,1504.770727 354.682507,1501.324300 308.743973,1445.115358 303.119940,1443.498432 299.723021,1442.531005 288.865516,1446.250627 284.692583,1447.043986 281.529094,1451.057037 283.683231,1458.881382 284.040000,1474.752150 284.643297,1506.607206"/>
    <poly id="123826009" type="building" color="255,230,230" fill="1" layer="-1.00" shape="1828.838642,1271.596909 1827.749282,1228.160437 1783.751538,1229.396340 1784.660970,1267.084997 1803.046482,1266.686338 1802.989039,1271.895358 1828.838642,1271.596909"/>
    <poly id="124466326" type="parking" color="184,184,179" fill="1" layer="-1.00" shape="2988.805179,1242.170343 3040.456200,1241.371379 3039.161776,1198.561468 3030.880199,1198.766946 3030.580847,1193.865680 2987.641200,1194.682826 2988.805179,1242.170343"/>
    <poly id="124466327" type="tourism" color="207,245,201" fill="1" layer="-2.00" shape="2990.275510,1176.891700 3038.295115,1175.473588 3037.482650,1148.953428 2987.377866,1172.203403 2986.027804,1174.320807 2986.176413,1175.938677 2988.058902,1176.707586 2990.275510,1176.891700"/>
    <poly id="128774641" type="building" color="255,230,230" fill="1" layer="-1.00" shape="2371.528088,937.832477 2398.514951,936.344782 2396.944040,910.540965 2395.265860,880.297984 2367.277296,876.933329 2369.392584,916.693723 2371.528088,937.832477"/>
    <poly id="148284755" type="building" color="255,230,230" fill="1" layer="-1.00" shape="312.774498,1064.267194 313.505009,1089.823376 301.027212,1090.192633 279.686574,1090.783327 280.602005,1122.631348 282.284223,1122.582432 289.264595,1122.381119 295.794497,1122.212145 299.245906,1122.123469 307.544500,1121.892545 318.808345,1121.561680 322.259754,1121.473014 337.651215,1121.027212 338.044266,1133.499318 338.443278,1147.781247 341.530182,1147.689676 341.912481,1161.228011 366.226832,1160.537351 363.432686,1062.818000 335.051096,1063.622250 312.774498,1064.267194"/>
    <poly id="152132898" type="amenity" color="237,199,199" fill="1" layer="-1.00" shape="2398.369430,671.132143 2383.615305,671.393173 2383.448716,661.547743 2364.357364,661.871821 2365.237419,694.852969 2383.877454,694.527808 2398.579498,694.267932 2398.369430,671.132143"/>
    <poly id="152132898#1" type="building" color="255,230,230" fill="1" layer="-1.00" shape="2398.369430,671.132143 2383.615305,671.393173 2383.448716,661.547743 2364.357364,661.871821 2365.237419,694.852969 2383.877454,694.527808 2398.579498,694.267932 2398.369430,671.132143"/>
    <poly id="153662270" type="building" color="255,230,230" fill="1" layer="-1.00" shape="331.541939,1326.022910 370.478627,1308.458631 367.900718,1235.041136 336.737408,1235.974538 334.977126,1251.082275 335.039758,1264.294675 337.148973,1275.140340 338.154974,1278.593298 329.172250,1282.737092 322.997438,1277.079549 312.404959,1271.754478 302.093515,1268.510665 289.261944,1267.411071 282.759237,1268.012504 284.758005,1304.821897 298.560918,1308.220394 309.143133,1313.090408 319.287960,1319.347167 329.237242,1325.397356 331.541939,1326.022910"/>
    <poly id="153662277" type="building" color="255,230,230" fill="1" layer="-1.00" shape="344.695633,1233.730360 367.128601,1233.115277 365.846615,1186.096279 346.535092,1186.619011 343.413513,1186.711360 343.969449,1196.392693 344.068872,1220.897071 344.695633,1233.730360"/>
    <poly id="153662277#1" type="shop" color="237,199,255" fill="1" layer="-1.00" shape="344.695633,1233.730360 367.128601,1233.115277 365.846615,1186.096279 346.535092,1186.619011 343.413513,1186.711360 343.969449,1196.392693 344.068872,1220.897071 344.695633,1233.730360"/>
    <poly id="171530225" type="building" color="255,230,230" fill="1" layer="-1.00" shape="1500.625230,1121.418910 1500.677240,1130.356424 1525.472285,1129.825162 1525.423980,1127.660971 1526.404216,1127.650196 1526.255090,1120.968951 1526.098985,1120.972436 1525.127917,1121.005214 1524.968398,1111.914646 1505.847820,1112.441379 1506.046512,1121.342307 1500.625230,1121.418910"/>
    <poly id="171530225#1" type="historic" color="128,255,128" fill="1" layer="-1.00" shape="1500.625230,1121.418910 1500.677240,1130.356424 1525.472285,1129.825162 1525.423980,1127.660971 1526.404216,1127.650196 1526.255090,1120.968951 1526.098985,1120.972436 1525.127917,1121.005214 1524.968398,1111.914646 1505.847820,1112.441379 1506.046512,1121.342307 1500.625230,1121.418910"/>
    <poly id="172453198" type="historic" color="128,255,128" fill="1" layer="-1.00" shape="2549.274293,326.550088 2551.142364,325.875725 2550.707882,324.675045 2548.822464,325.349792 2549.274293,326.550088"/>
    <poly id="174192690" type="leisure" color="207,245,201" fill="1" layer="-2.00" shape="1359.943796,152.387933 1360.419726,176.028690 1488.474886,172.758865 1487.793156,149.211547 1359.943796,152.387933"/>
    <poly id="175895751" type="tourism" color="207,245,201" fill="1" layer="-2.00" shape="2522.388214,151.594785 2522.464141,152.670173 2522.937788,155.635495 2524.342481,156.759129 2526.052524,157.565080 2529.428972,157.601207 2677.578762,154.226849 2680.273880,153.278799 2681.653398,152.093420 2682.143301,150.705685 2682.216201,148.905248 2679.160377,13.006570 2679.040450,6.813291 2678.929119,4.139736 2678.029281,2.693976 2676.377049,1.364830 2674.772241,1.000665 2526.848439,1.782704 2520.382873,1.759592 2520.280253,8.868328 2522.388214,151.594785"/>
    <poly id="176111814" type="building" color="255,230,230" fill="1" layer="-1.00" shape="1604.480347,1021.197806 1592.302819,1021.413970 1591.779443,992.511000 1580.625732,992.726545 1580.619448,999.055929 1582.882995,999.005424 1583.308856,1022.369707 1581.400890,1022.412278 1581.502408,1027.739902 1592.291822,1027.532483 1592.273498,1026.711201 1595.621356,1026.647611 1604.736966,1026.477553 1605.482272,1073.108555 1605.585991,1079.313341 1626.664888,1079.054079 1625.074804,991.823741 1608.483619,992.171645 1603.947600,992.261735 1604.480347,1021.197806"/>
    <poly id="181611427" type="leisure" color="207,245,201" fill="1" layer="-2.00" shape="1393.997867,662.686240 1392.960583,663.253500 1377.599256,662.752689 1376.008625,661.855485 1375.001053,659.479538 1376.129041,629.562523 1377.622274,628.041243 1379.243380,627.583085 1394.598085,628.172882 1395.771174,628.635257 1395.948111,629.952675 1394.477329,657.734277 1394.256317,661.825464 1393.997867,662.686240"/>
    <poly id="181611427#1" type="sport" color="79,230,125" fill="1" layer="-2.00" shape="1393.997867,662.686240 1392.960583,663.253500 1377.599256,662.752689 1376.008625,661.855485 1375.001053,659.479538 1376.129041,629.562523 1377.622274,628.041243 1379.243380,627.583085 1394.598085,628.172882 1395.771174,628.635257 1395.948111,629.952675 1394.477329,657.734277 1394.256317,661.825464 1393.997867,662.686240"/>
    <poly id="181611530" type="landuse" color="194,194,130" fill="1" layer="-3.00" shape="1388.850024,757.773256 1381.411334,746.791039 1378.639920,740.423756 1375.974061,733.732101 1374.395792,728.337524 1373.396123,722.430345 1373.758533,709.519464 1376.075364,700.584558 1379.481284,692.624682 1383.818701,686.742649 1388.101622,682.693987 1394.811736,678.535600 1401.677234,675.894989 1411.217977,674.149580 1420.003682,673.176112 1443.488323,672.185363 1456.801810,673.076241 1467.987195,674.647574 1475.935827,676.602087 1483.233480,680.103482 1488.438714,683.940292 1492.262711,688.485277 1496.034156,695.341054 1499.101844,702.934298 1500.744693,710.059668 1501.531645,717.714923 1499.711985,730.269675 1497.191840,738.265242 1493.550174,746.163701 1489.471656,753.150286 1485.455102,758.636459 1478.830498,765.069170 1472.176172,770.170078 1465.981271,774.083717 1459.326468,776.830612 1453.548123,778.414238 1451.107585,779.090549 1443.574603,780.202578 1438.099314,780.591327 1432.646822,780.446581 1426.622663,779.570641 1421.658570,778.371227 1418.215446,777.282201 1413.924363,775.912307 1408.084054,773.555450 1402.131233,769.657661 1395.744259,764.581451 1388.850024,757.773256"/>
    <poly id="187177702" type="building" color="255,230,230" fill="1" layer="-1.00" shape="2722.839502,332.272931 2718.050839,326.460722 2725.084247,328.625539 2726.007123,328.371905 2726.932706,328.240353 2730.731046,321.083031 2730.909862,329.151554 2731.636568,329.834990 2732.226714,330.621387 2738.903033,332.727507 2732.328051,335.193920 2731.948019,336.057338 2731.340514,336.836966 2731.236750,343.901303 2727.390225,338.312493 2726.393846,337.990357 2725.516188,337.543447 2719.166718,340.004874 2722.880580,334.126361 2722.781858,333.195827 2722.839502,332.272931"/>
    <poly id="187177702#1" type="historic" color="128,255,128" fill="1" layer="-1.00" shape="2722.839502,332.272931 2718.050839,326.460722 2725.084247,328.625539 2726.007123,328.371905 2726.932706,328.240353 2730.731046,321.083031 2730.909862,329.151554 2731.636568,329.834990 2732.226714,330.621387 2738.903033,332.727507 2732.328051,335.193920 2731.948019,336.057338 2731.340514,336.836966 2731.236750,343.901303 2727.390225,338.312493 2726.393846,337.990357 2725.516188,337.543447 2719.166718,340.004874 2722.880580,334.126361 2722.781858,333.195827 2722.839502,332.272931"/>
    <poly id="187177702#2" type="tourism" color="207,245,201" fill="1" layer="-2.00" shape="2722.839502,332.272931 2718.050839,326.460722 2725.084247,328.625539 2726.007123,328.371905 2726.932706,328.240353 2730.731046,321.083031 2730.909862,329.151554 2731.636568,329.834990 2732.226714,330.621387 2738.903033,332.727507 2732.328051,335.193920 2731.948019,336.057338 2731.340514,336.836966 2731.236750,343.901303 2727.390225,338.312493 2726.393846,337.990357 2725.516188,337.543447 2719.166718,340.004874 2722.880580,334.126361 2722.781858,333.195827 2722.839502,332.272931"/>
    <poly id="187378187" type="tourism" color="207,245,201" fill="1" layer="-2.00" shape="3042.234258,319.759696 3060.482852,319.356008 3090.136818,318.700103 3115.054677,318.126833 3116.761926,317.633824 3118.052533,316.350555 3118.324031,314.501320 3118.285422,311.970507 3118.253930,309.761547 3118.087876,299.505307 3117.083357,258.787674 3116.870083,250.320191 3116.737475,244.715704 3116.013970,215.528708 3108.146216,215.658275 3107.619825,199.702650 3107.587836,198.648497 3112.973292,198.496095 3112.930673,196.176343 3112.684453,181.902302 3112.642900,179.238309 3112.504084,171.390992 3111.774216,169.386240 3111.146627,167.690133 3109.854534,166.552806 3108.695242,165.534685 3106.432374,164.840770 3103.772898,164.655297 3095.708704,167.676205 3071.894514,176.974895 3040.794948,188.799934 3038.904637,190.040962 3038.082795,191.724714 3038.101546,194.533562 3038.567624,214.032638 3038.672788,218.394107 3038.703479,219.781404 3039.016928,233.165660 3039.043936,234.386481 3039.255738,243.176010 3041.000820,246.746141 3041.699319,274.790008 3040.245168,279.663437 3040.608964,313.366548 3040.650710,316.430275 3040.675595,318.339580 3041.221036,319.460101 3042.234258,319.759696"/>
    <poly id="203599061" type="building" color="255,230,230" fill="1" layer="-1.00" shape="721.694530,719.136531 766.831937,717.891547 766.825809,689.743058 749.379069,690.667102 735.957332,691.534268 721.249724,691.941708 721.562908,710.556091 721.302186,715.569840 721.694530,719.136531"/>
    <poly id="203599061#1" type="tourism" color="207,245,201" fill="1" layer="-2.00" shape="721.694530,719.136531 766.831937,717.891547 766.825809,689.743058 749.379069,690.667102 735.957332,691.534268 721.249724,691.941708 721.562908,710.556091 721.302186,715.569840 721.694530,719.136531"/>
    <poly id="206844338" type="building" color="255,230,230" fill="1" layer="-1.00" shape="3025.670615,1251.136843 3026.859479,1272.707475 3032.281840,1272.687406 3032.283427,1274.719371 3032.482889,1274.714957 3036.734251,1274.709703 3036.769518,1285.712814 3038.981672,1285.697170 3039.420660,1294.948046 3047.868873,1294.827714 3074.861477,1294.441413 3074.664244,1280.821386 3081.906539,1280.705565 3081.850711,1277.397861 3085.684575,1277.346350 3084.305687,1250.316843 3025.670615,1251.136843"/>
    <poly id="207429162" type="building" color="255,230,230" fill="1" layer="-1.00" shape="2409.966786,1377.747016 2419.421765,1397.957053 2447.495669,1384.930577 2433.779523,1354.122105 2397.365394,1354.164672 2396.728939,1377.463641 2409.966786,1377.747016"/>
    <poly id="215091901" type="water" color="181,209,209" fill="1" layer="-4.00" shape="920.432511,604.143414 920.572157,609.992085 955.698250,609.216690 955.852519,603.317024 920.432511,604.143414"/>
    <poly id="215091902" type="water" color="181,209,209" fill="1" layer="-4.00" shape="863.091169,611.457126 898.745326,610.625234 898.605415,604.765464 862.951232,605.597357 863.091169,611.457126"/>
    <poly id="218129368" type="building" color="255,230,230" fill="1" layer="-1.00" shape="939.931663,827.018959 936.353942,826.121921 933.472529,825.320333 929.507931,823.421500 925.961315,820.813757 922.939735,817.627955 920.540333,813.939645 918.899415,810.023374 918.844147,809.880260 918.157567,807.119640 918.693543,807.029909 918.679598,806.019758 854.637654,807.376483 854.643621,807.642845 855.357061,844.136781 900.848376,843.617455 901.192274,846.574518 939.777787,846.110152 939.931663,827.018959"/>
    <poly id="220392693" type="parking" color="184,184,179" fill="1" layer="-1.00" shape="2525.864917,1254.929966 2524.829320,1197.323890 2524.387581,1174.293175 2513.268665,1160.815582 2466.218270,1161.737892 2469.843932,1230.468075 2525.864917,1254.929966"/>
    <poly id="220477613" type="tourism" color="207,245,201" fill="1" layer="-2.00" shape="2377.154260,1611.768420 2376.876384,1599.260516 2427.112387,1596.956518 2427.198570,1601.618234 2453.014827,1601.044906 2453.236144,1611.011274 2377.154260,1611.768420"/>
    <poly id="227073766" type="building" color="255,230,230" fill="1" layer="-1.00" shape="2879.258174,1299.882058 2759.501724,1302.846521 2759.391512,1299.440083 2753.753091,1299.498440 2753.548591,1295.361237 2809.048770,1269.369631 2808.771465,1266.644230 2815.137148,1266.514279 2878.057310,1237.049828 2879.258174,1299.882058"/>
    <poly id="228280232" type="landuse" color="194,194,130" fill="1" layer="-3.00" shape="1369.738196,913.722052 1370.148017,911.481003 1371.614190,910.693183 1372.388244,906.500806 1373.954708,899.714613 1376.258849,892.545512 1379.453070,885.989456 1383.253149,879.364349 1388.155915,873.158772 1393.039368,867.642075 1398.917718,862.380760 1404.822350,858.295882 1411.278083,854.798313 1418.301273,852.231913 1425.379729,850.585913 1432.938166,849.839725 1444.330959,849.440982 1452.145368,849.666244 1458.150391,850.464900 1463.082219,851.776094 1469.148194,853.750416 1475.868336,857.042611 1482.195966,861.020914 1487.809200,865.648094 1492.836892,870.865753 1497.614552,876.544258 1502.023488,882.808400 1505.432079,889.350264 1508.048225,896.154104 1510.257739,903.400075 1511.381178,910.970093 1369.738196,913.722052"/>
    <poly id="229812621" type="building" color="255,230,230" fill="1" layer="-1.00" shape="748.449512,658.874991 721.610554,659.654297 721.485430,670.716684 721.249724,691.941708 735.957332,691.534268 735.710277,683.222912 749.162841,683.343312 748.449512,658.874991"/>
    <poly id="230585358" type="building" color="255,230,230" fill="1" layer="-1.00" shape="529.120200,927.570194 520.877182,927.966187 521.204662,937.530500 529.242017,937.250164 529.928437,958.554472 549.177553,957.933684 548.497661,936.917935 548.009741,921.749695 528.963948,922.154941 529.120200,927.570194"/>
    <poly id="230585359" type="building" color="255,230,230" fill="1" layer="-1.00" shape="521.434611,945.842249 521.204662,937.530500 520.877182,927.966187 520.682155,921.596858 507.943920,921.971619 501.058277,922.148395 491.501436,922.385142 487.790259,922.501769 488.430818,946.782987 521.434611,945.842249"/>
    <poly id="235150267" type="building" color="255,230,230" fill="1" layer="-1.00" shape="1203.168708,717.506756 1205.597126,717.452462 1206.525128,717.431714 1215.232243,717.214841 1214.839501,700.811970 1213.477850,700.842411 1212.280985,700.869169 1210.858871,700.912067 1202.767269,701.104079 1203.168708,717.506756"/>
    <poly id="238241015" type="leisure" color="207,245,201" fill="1" layer="-2.00" shape="1470.005902,802.775281 1469.674147,783.639494 1494.524797,783.217995 1494.856244,802.342682 1470.005902,802.775281"/>
    <poly id="238241016" type="building" color="255,230,230" fill="1" layer="-1.00" shape="1373.393228,807.375609 1373.654262,817.896322 1370.914152,817.979736 1368.538052,818.043917 1365.407666,818.136051 1361.661511,818.241943 1361.546736,814.269293 1361.417847,811.218586 1361.311506,808.011920 1359.646573,808.060216 1359.648318,808.915182 1351.470599,809.131179 1348.391998,809.211059 1347.949684,809.220941 1348.059012,812.949425 1348.126943,815.601752 1339.472474,815.839517 1339.406275,813.264879 1339.303633,809.447413 1337.725429,809.493777 1334.863649,809.568818 1328.994881,809.822084 1328.041120,809.854498 1327.783794,802.609366 1327.631528,795.017665 1327.531881,792.887933 1327.490458,790.257222 1327.430225,789.114861 1327.173855,779.582294 1333.963950,779.397276 1338.421546,779.286582 1343.590066,779.148904 1348.082105,779.026342 1353.562848,778.881695 1358.852789,778.741315 1358.900142,780.861111 1359.552328,779.758355 1360.330396,778.852658 1361.379553,778.040841 1362.672051,777.634435 1363.914500,777.706616 1364.938148,778.083492 1365.801722,778.674919 1366.753516,779.719637 1368.653861,779.721603 1372.937751,779.603705 1373.154474,794.744649 1373.393228,807.375609"/>
    <poly id="238241017" type="building" color="255,230,230" fill="1" layer="-1.00" shape="1373.393228,807.375609 1373.654262,817.896322 1385.066183,817.574796 1386.271455,817.536771 1394.960612,817.298283 1395.061985,820.671619 1397.082505,821.392664 1398.355429,822.052679 1399.643222,822.989961 1401.424624,824.271545 1403.511798,824.868960 1405.567994,824.856350 1405.314451,817.000418 1412.078494,816.816047 1412.069815,815.650326 1412.003390,812.675952 1411.941429,810.289988 1411.861868,806.727398 1407.829010,806.817462 1402.452113,806.948649 1373.393228,807.375609"/>
    <poly id="238241018" type="building" color="255,230,230" fill="1" layer="-1.00" shape="1505.061335,815.595074 1505.071243,816.039010 1505.149286,817.980458 1505.182731,819.090105 1505.289009,823.074046 1508.748958,822.974611 1508.764069,823.651614 1512.813767,823.539017 1515.753348,823.451200 1520.167056,823.319378 1520.147236,822.820144 1523.537555,822.711165 1523.422366,818.716319 1529.431623,818.537789 1529.094234,807.308135 1528.940896,802.381410 1528.898785,800.883318 1528.779633,797.099535 1528.617874,791.795464 1528.396662,784.605050 1522.422071,784.782806 1522.318279,780.909848 1518.468034,781.017987 1518.448710,780.540949 1514.607634,780.671094 1511.598654,780.760460 1507.679027,780.870153 1507.695874,781.236207 1504.079796,781.339126 1504.171954,784.690458 1504.282445,788.474435 1504.388230,792.047542 1504.490800,794.699093 1504.606493,798.716137 1504.819798,805.940039 1504.852004,806.994194 1504.879994,808.636952 1504.918639,810.368304 1504.995190,813.020437 1505.011540,813.752932 1505.061335,815.595074"/>
    <poly id="238241019" type="leisure" color="207,245,201" fill="1" layer="-2.00" shape="1404.672195,780.471676 1405.172650,806.765747 1373.393228,807.375609 1373.154474,794.744649 1372.892667,781.081537 1404.672195,780.471676"/>
    <poly id="238241021" type="building" color="255,230,230" fill="1" layer="-1.00" shape="1505.061335,815.595074 1505.011540,813.752932 1504.995190,813.020437 1504.918639,810.368304 1504.879994,808.636952 1504.852004,806.994194 1504.819798,805.940039 1504.606493,798.716137 1497.997062,798.830353 1498.100614,803.469488 1498.131333,804.845691 1496.050105,804.903251 1469.730844,805.612927 1464.050895,805.773045 1464.029829,808.327422 1464.099455,811.446075 1464.170072,814.609122 1464.216159,816.673426 1473.326565,816.647698 1473.307734,815.804219 1497.745211,815.147661 1500.529924,815.118814 1500.543053,815.707030 1505.061335,815.595074"/>
    <poly id="238241022" type="building" color="255,230,230" fill="1" layer="-1.00" shape="1463.940632,801.222891 1458.866786,801.325066 1457.956140,801.345397 1451.217361,801.495853 1447.193421,801.596801 1446.584092,799.955919 1445.745553,798.542233 1444.933776,797.549900 1443.773351,796.487623 1442.496710,795.661125 1440.595874,794.859668 1438.913097,794.497500 1437.906306,794.486669 1436.925533,794.475257 1434.946890,794.852557 1433.089668,795.615783 1431.755294,796.478375 1430.539367,797.593713 1429.821260,798.464752 1428.843219,800.129975 1428.217790,802.042716 1425.034866,802.113792 1421.227747,802.209912 1417.819329,802.286026 1417.160195,802.300746 1411.757277,802.432507 1411.861868,806.727398 1411.941429,810.289988 1412.003390,812.675952 1412.069815,815.650326 1412.095592,816.804561 1412.136983,818.657996 1412.173666,820.300560 1412.194489,822.010103 1412.365752,828.901828 1416.016749,828.809190 1417.473282,828.754455 1421.679584,828.660522 1425.417557,828.577050 1428.461458,828.497974 1430.603637,828.450138 1430.656672,830.825198 1430.707225,831.923360 1430.743158,832.755353 1430.760507,833.920880 1430.786529,835.086213 1430.842789,838.382828 1430.871537,839.670244 1430.907224,841.268415 1438.088034,841.096966 1440.481720,841.043517 1447.237564,840.881566 1447.198163,839.116918 1447.168674,837.796208 1447.090120,834.666650 1447.063605,833.479120 1447.038329,832.347082 1446.991990,830.660317 1446.925330,828.063483 1449.050164,828.016040 1451.834129,827.953881 1456.794717,827.832021 1459.405226,827.773738 1464.478560,827.649366 1464.384403,823.820608 1464.373500,823.332278 1464.330139,821.390056 1464.234000,817.472512 1464.216159,816.673426 1464.170072,814.609122 1464.099703,811.457174 1464.029829,808.327422 1464.050895,805.773045 1463.940632,801.222891"/>
    <poly id="238257269" type="landuse" color="194,194,130" fill="0" layer="-3.00" shape="1277.492328,641.149082 1276.269683,641.187509 1252.767588,641.790502 1252.588321,637.264095 1242.086552,637.554349 1242.251942,641.847883 1219.114111,642.442834 1217.813409,642.483016 1217.962524,649.153161 1218.049375,653.426243 1218.185589,659.519271 1219.443171,659.491157 1243.023026,658.875220 1243.230696,669.330504 1206.021428,670.451019 1199.193567,670.503739 1196.394146,669.489245 1194.772736,667.604513 1194.257992,665.539581 1194.083569,658.514674 1193.940286,656.763452 1193.893647,655.065589 1192.247201,597.339605 1192.395160,589.985476 1192.242340,584.314770 1192.609503,581.719339 1194.402536,579.636121 1196.760347,578.750609 1202.697679,578.451306 1281.176087,576.508381 1283.135953,576.453480 1285.261848,576.450389 1288.099182,576.442504 1295.055481,576.309268 1298.044969,576.508962 1300.322046,577.834971 1301.795508,579.700822 1302.299088,582.432245 1302.486462,584.604433 1302.869167,590.469871"/>
    <poly id="238257271" type="landuse" color="194,194,130" fill="1" layer="-3.00" shape="1249.893749,616.870838 1249.261177,588.181255 1250.495940,586.743454 1252.204276,586.305529 1252.229240,583.540087 1240.841009,583.772423 1240.707011,586.318224 1242.496152,586.777911 1243.959953,588.210914 1244.450361,608.986556 1243.702524,610.080355 1241.735501,610.979327 1241.720436,613.022791 1243.684768,613.556290 1245.160948,614.766937 1246.287010,617.006974 1249.893749,616.870838"/>
    <poly id="238257271#1" type="leisure" color="207,245,201" fill="1" layer="-2.00" shape="1249.893749,616.870838 1249.261177,588.181255 1250.495940,586.743454 1252.204276,586.305529 1252.229240,583.540087 1240.841009,583.772423 1240.707011,586.318224 1242.496152,586.777911 1243.959953,588.210914 1244.450361,608.986556 1243.702524,610.080355 1241.735501,610.979327 1241.720436,613.022791 1243.684768,613.556290 1245.160948,614.766937 1246.287010,617.006974 1249.893749,616.870838"/>
    <poly id="238258156" type="tourism" color="207,245,201" fill="1" layer="-2.00" shape="1571.894388,658.559735 1569.325327,651.144108 1567.332449,640.384448 1566.284213,627.627213 1566.115417,615.005811 1566.810731,600.666229 1568.151916,595.439667 1569.118403,591.698287 1571.931279,586.705386 1574.314194,583.443187 1578.456991,580.497052 1584.444429,577.387624 1651.199722,575.843154 1659.269108,576.595937 1667.599214,576.199211 1669.699319,576.596539 1672.683299,578.106760 1675.013794,580.664217 1676.275958,585.122058 1676.141180,650.293974 1676.529513,657.591696 1675.856935,659.338905 1674.786155,660.739667 1672.423835,662.591178 1669.962682,663.123526 1666.823318,663.204634 1662.461560,663.335210 1656.598886,663.477052 1642.843816,663.794910 1592.957920,665.340679 1586.991665,665.507091 1581.250178,664.857906 1575.489891,662.199333 1571.894388,658.559735"/>
    <poly id="238385554" type="building" color="255,230,230" fill="1" layer="-1.00" shape="1199.780512,691.710283 1199.723688,689.168747 1199.658191,686.627404 1206.344790,686.466803 1207.897248,686.432094 1207.910399,687.020310 1207.956551,689.084614 1208.019565,691.514972 1199.780512,691.710283"/>
    <poly id="238456693" type="landuse" color="194,194,130" fill="1" layer="-3.00" shape="1521.761253,579.041651 1524.642478,575.945979 1528.482434,574.205800 1532.567947,573.748200 1543.037053,575.491084 1545.895928,576.448853 1547.853535,578.237321 1549.149508,580.318150 1549.624511,582.550545 1548.863665,589.285400 1546.751888,608.198099 1545.374863,607.929020 1533.461800,591.250257 1527.741381,584.937632 1521.761253,579.041651"/>
    <poly id="238456694" type="landuse" color="194,194,130" fill="1" layer="-3.00" shape="1546.902751,629.736359 1540.035913,614.432916 1531.889862,602.466995 1523.954143,592.928149 1516.740231,585.405220 1521.761253,579.041651 1527.741381,584.937632 1533.461800,591.250257 1545.374863,607.929020 1546.751888,608.198099 1546.573551,620.427507 1546.902751,629.736359"/>
    <poly id="238456695" type="landuse" color="194,194,130" fill="1" layer="-3.00" shape="1484.852446,538.825279 1484.015621,537.877916 1484.689899,536.985654 1491.468818,534.347063 1494.605756,534.543541 1497.087243,536.087121 1498.033831,538.453339 1496.469931,540.309290 1493.918299,541.065790 1490.630208,540.317489 1484.852446,538.825279"/>
    <poly id="238456697" type="landuse" color="194,194,130" fill="1" layer="-3.00" shape="1324.296589,608.856723 1323.104385,589.284890 1323.029242,585.144797 1323.050010,581.802044 1323.442728,578.406566 1324.673786,576.802301 1327.224402,576.001352 1342.400291,575.573486 1345.060205,576.169198 1347.751853,578.185508 1348.883327,579.115172 1354.012387,584.585882 1352.962732,587.707330 1346.349732,595.050412 1338.386526,606.432189 1333.093117,615.355877 1328.199191,625.458767 1324.796285,635.106398 1324.958898,621.800234 1324.296589,608.856723"/>
    <poly id="238456698" type="tourism" color="207,245,201" fill="1" layer="-2.00" shape="1590.778213,397.640338 1590.673737,404.627037 1589.765142,410.965437 1587.824289,424.322337 1584.488062,436.977506 1582.494376,441.352512 1581.191600,444.412946 1579.591445,448.146250 1578.745643,450.297073 1577.005984,453.611540 1572.536407,462.139133 1572.295036,462.599778 1564.469144,474.322458 1555.343057,485.330194 1550.316514,490.283660 1548.508010,492.067329 1546.784258,493.760276 1545.001281,495.521169 1533.554833,504.815183 1521.096642,513.099129 1507.764236,520.314421 1493.677302,526.380664 1491.885679,526.975850 1490.765853,527.345067 1488.121290,528.214682 1484.193602,529.135147 1479.048453,530.715713 1464.045439,534.226348 1448.446969,536.717639 1432.494644,537.740039 1416.688027,537.515576 1401.274420,536.238597 1389.570910,534.012682 1385.945544,533.316372 1377.924137,531.219215 1371.039399,529.118885 1365.298518,526.948596 1361.097738,525.354627 1357.420071,523.871119 1343.054570,517.074387 1330.247719,509.354543 1329.515451,508.815705 1327.062414,506.993940 1324.538999,505.129333 1318.397849,500.580670 1307.611515,490.861424 1298.003207,480.271968 1289.320659,468.784624 1283.315640,457.903693 1281.993062,455.801290 1276.901936,445.044292 1272.906797,431.686689 1270.126666,419.501161 1268.853668,406.027207 1269.109629,391.852848 1271.194936,378.770212 1274.831758,364.442575 1277.994897,356.488088 1279.375381,353.026120 1280.947182,349.970724 1286.051893,340.362784 1292.242261,330.019937 1299.980966,319.842373 1310.431717,308.704806 1323.119241,297.861508 1335.156567,289.375689 1349.085963,281.680422 1363.570988,275.549531 1378.140542,270.482758 1394.385076,266.588939 1408.282351,264.057830 1409.214618,263.837142 1412.288475,263.535325 1415.596018,263.206083 1416.479219,263.119740 1430.721205,262.812864 1437.599218,263.047947 1441.012079,263.160522 1442.775011,263.221100 1444.841760,263.286001 1458.074397,264.800544 1473.327423,267.802356 1487.998315,271.938685 1502.340332,277.281604 1516.214198,283.812012 1529.248940,291.238377 1541.327587,299.763175 1552.197110,310.102699 1562.361814,321.523937 1572.433753,335.789861 1574.371804,339.033387 1576.391131,342.419452 1583.171622,356.958685 1587.147426,370.250223 1589.757049,383.761005 1590.778213,397.640338"/>