<?xml version="1.0" encoding="UTF-8"?>

<!-- generated on 2021-10-16 20:39:36 by Eclipse SUMO netconvert Version 1.10.0
<configuration xmlns:xsi="http://www.w3.org/2001/XMLSchema-instance" xsi:noNamespaceSchemaLocation="http://sumo.dlr.de/xsd/netconvertConfiguration.xsd">

    <input>
        <sumo-net-file value="washingtondc.net.xml"/>
    </input>

    <output>
        <plain-output-prefix value="washingtondc"/>
    </output>

    <processing>
        <geometry.min-radius.fix.railways value="false"/>
        <geometry.max-grade.fix value="false"/>
        <offset.disable-normalization value="true"/>
        <lefthand value="false"/>
    </processing>

    <junctions>
        <no-internal-links value="true"/>
        <no-turnarounds value="true"/>
        <junctions.corner-detail value="5"/>
        <junctions.limit-turn-speed value="5.5"/>
        <rectangular-lane-cut value="false"/>
    </junctions>

    <pedestrian>
        <walkingareas value="false"/>
    </pedestrian>

    <report>
        <aggregate-warnings value="5"/>
    </report>

</configuration>
-->

<connections version="1.9" xmlns:xsi="http://www.w3.org/2001/XMLSchema-instance" xsi:noNamespaceSchemaLocation="http://sumo.dlr.de/xsd/connections_file.xsd">
    <connection from="-108402216#0" to="535462247#1" fromLane="0" toLane="0"/>
    <connection from="-108402216#0" to="108402216#0" fromLane="0" toLane="0"/>

    <connection from="-108402216#1" to="-565480521#1" fromLane="0" toLane="0"/>
    <connection from="-108402216#1" to="-108402216#0" fromLane="0" toLane="0"/>
    <connection from="-108402216#1" to="565480521#2" fromLane="0" toLane="0"/>
    <connection from="-108402216#1" to="108402216#1" fromLane="0" toLane="0"/>

    <connection from="-108402217#0" to="590605528#3" fromLane="0" toLane="1"/>
    <connection from="-108402217#0" to="590605528#3" fromLane="0" toLane="2"/>
    <connection from="-108402217#0" to="108402217#0" fromLane="0" toLane="0"/>

    <connection from="-108402217#1" to="-108402217#0" fromLane="0" toLane="0"/>
    <connection from="-108402217#1" to="-565463062" fromLane="0" toLane="0"/>
    <connection from="-108402217#1" to="108402217#1" fromLane="0" toLane="0"/>

    <connection from="-120478418#1" to="6055551#0" fromLane="0" toLane="0"/>
    <connection from="-120478418#1" to="-468434116#1" fromLane="0" toLane="0"/>
    <connection from="-120478418#1" to="-468434116#1" fromLane="1" toLane="1"/>
    <connection from="-120478418#1" to="-468434116#1" fromLane="2" toLane="2"/>
    <connection from="-120478418#1" to="-468434116#1" fromLane="3" toLane="3"/>
    <connection from="-120478418#1" to="-397277247#1" fromLane="3" toLane="1"/>
    <connection from="-120478418#1" to="120478418#0" fromLane="3" toLane="3"/>

    <connection from="-120478418#3" to="6063036#0" fromLane="0" toLane="0"/>
    <connection from="-120478418#3" to="-120478418#1" fromLane="0" toLane="0"/>
    <connection from="-120478418#3" to="-120478418#1" fromLane="1" toLane="1"/>
    <connection from="-120478418#3" to="-120478418#1" fromLane="2" toLane="2"/>
    <connection from="-120478418#3" to="-120478418#1" fromLane="3" toLane="3"/>
    <connection from="-120478418#3" to="120478418#2" fromLane="3" toLane="3"/>

    <connection from="-120478419#1" to="-120478694#2" fromLane="0" toLane="0"/>
    <connection from="-120478419#1" to="397315035#0" fromLane="0" toLane="0"/>
    <connection from="-120478419#1" to="397315035#0" fromLane="1" toLane="1"/>
    <connection from="-120478419#1" to="397315035#0" fromLane="2" toLane="2"/>
    <connection from="-120478419#1" to="397315035#0" fromLane="3" toLane="3"/>
    <connection from="-120478419#1" to="120478419#0" fromLane="3" toLane="3"/>

    <connection from="-120478694#2" to="120478694#0" fromLane="2" toLane="3"/>

    <connection from="-120478695#2" to="397329575#0" fromLane="0" toLane="0"/>
    <connection from="-120478695#2" to="-589905511#3" fromLane="0" toLane="0"/>
    <connection from="-120478695#2" to="-589905511#3" fromLane="1" toLane="1"/>
    <connection from="-120478695#2" to="-589905511#3" fromLane="2" toLane="2"/>
    <connection from="-120478695#2" to="-130908059#2" fromLane="2" toLane="0"/>
    <connection from="-120478695#2" to="120478695#0" fromLane="2" toLane="2"/>

    <connection from="-120478695#3" to="-120478695#2" fromLane="0" toLane="0"/>
    <connection from="-120478695#3" to="-120478695#2" fromLane="1" toLane="1"/>
    <connection from="-120478695#3" to="-120478695#2" fromLane="2" toLane="2"/>
    <connection from="-120478695#3" to="-514191883#2" fromLane="2" toLane="0"/>
    <connection from="-120478695#3" to="120478695#3" fromLane="2" toLane="2"/>

    <connection from="-121782030#0" to="590605528#2" fromLane="0" toLane="0"/>
    <connection from="-121782030#0" to="121782030#0" fromLane="0" toLane="0"/>

    <connection from="-121782030#1" to="-366519915#0" fromLane="0" toLane="0"/>
    <connection from="-121782030#1" to="-121782030#0" fromLane="0" toLane="0"/>
    <connection from="-121782030#1" to="366519915#1" fromLane="0" toLane="0"/>
    <connection from="-121782030#1" to="121782030#1" fromLane="0" toLane="0"/>

    <connection from="-121782031" to="-436136927#5" fromLane="0" toLane="0"/>
    <connection from="-121782031" to="602653822#0" fromLane="0" toLane="0"/>
    <connection from="-121782031" to="436136927#6" fromLane="0" toLane="1"/>
    <connection from="-121782031" to="-565463075" fromLane="0" toLane="0"/>
    <connection from="-121782031" to="121782031" fromLane="0" toLane="0"/>

    <connection from="-121980349" to="121980349" fromLane="1" toLane="1"/>

    <connection from="-121980352" to="-466349882#1" fromLane="0" toLane="0"/>
    <connection from="-121980352" to="-466349882#1" fromLane="1" toLane="1"/>
    <connection from="-121980352" to="-466349882#1" fromLane="2" toLane="2"/>
    <connection from="-121980352" to="121980352" fromLane="2" toLane="2"/>

    <connection from="-125568108#1" to="6052882#0" fromLane="0" toLane="0"/>
    <connection from="-125568108#1" to="-130788190" fromLane="0" toLane="0"/>
    <connection from="-125568108#1" to="125568108#0" fromLane="0" toLane="0"/>

    <connection from="-125568108#2" to="-125568108#1" fromLane="0" toLane="0"/>
    <connection from="-125568108#2" to="484511082#0" fromLane="0" toLane="0"/>
    <connection from="-125568108#2" to="125568108#2" fromLane="0" toLane="0"/>

    <connection from="-125568108#4" to="565569242#0" fromLane="0" toLane="0"/>
    <connection from="-125568108#4" to="-125568108#2" fromLane="0" toLane="0"/>
    <connection from="-125568108#4" to="125568108#3" fromLane="0" toLane="0"/>

    <connection from="-125568108#7" to="-575569267#10" fromLane="0" toLane="0"/>
    <connection from="-125568108#7" to="-125568108#4" fromLane="0" toLane="0"/>
    <connection from="-125568108#7" to="575569267#11" fromLane="0" toLane="0"/>
    <connection from="-125568108#7" to="125568108#5" fromLane="0" toLane="0"/>

    <connection from="-126303356#1" to="-298832261#2" fromLane="0" toLane="0"/>
    <connection from="-126303356#1" to="-298832261#2" fromLane="1" toLane="1"/>
    <connection from="-126303356#1" to="126303356#0" fromLane="1" toLane="1"/>

    <connection from="-126303361#1" to="108060074#0" fromLane="0" toLane="0"/>
    <connection from="-126303361#1" to="-421077027" fromLane="0" toLane="0"/>
    <connection from="-126303361#1" to="-421077027" fromLane="1" toLane="1"/>
    <connection from="-126303361#1" to="-421077027" fromLane="2" toLane="2"/>
    <connection from="-126303361#1" to="126303361#0" fromLane="2" toLane="2"/>

    <connection from="-126303361#4" to="348634728#0" fromLane="0" toLane="0"/>
    <connection from="-126303361#4" to="-126303361#1" fromLane="0" toLane="0"/>
    <connection from="-126303361#4" to="-126303361#1" fromLane="1" toLane="1"/>
    <connection from="-126303361#4" to="-126303361#1" fromLane="2" toLane="2"/>
    <connection from="-126303361#4" to="-348641037#2" fromLane="2" toLane="0"/>
    <connection from="-126303361#4" to="126303361#3" fromLane="2" toLane="2"/>

    <connection from="-126303361#7" to="-126303361#4" fromLane="0" toLane="0"/>
    <connection from="-126303361#7" to="-126303361#4" fromLane="1" toLane="1"/>
    <connection from="-126303361#7" to="-126303361#4" fromLane="2" toLane="2"/>
    <connection from="-126303361#7" to="468469935#0" fromLane="2" toLane="2"/>
    <connection from="-126303361#7" to="126303361#5" fromLane="2" toLane="2"/>

    <connection from="-126303362#1" to="-130802371#2" fromLane="0" toLane="1"/>
    <connection from="-126303362#1" to="-130802371#2" fromLane="1" toLane="2"/>
    <connection from="-126303362#1" to="126303362#0" fromLane="1" toLane="2"/>

    <connection from="-126303366#1" to="468434122#0" fromLane="0" toLane="0"/>
    <connection from="-126303366#1" to="469165486#0" fromLane="0" toLane="0"/>
    <connection from="-126303366#1" to="469165486#0" fromLane="1" toLane="1"/>
    <connection from="-126303366#1" to="469165486#0" fromLane="2" toLane="2"/>
    <connection from="-126303366#1" to="126303366#0" fromLane="2" toLane="2"/>

    <connection from="-130285136#2" to="-468436770" fromLane="0" toLane="0"/>
    <connection from="-130285136#2" to="-468436770" fromLane="1" toLane="1"/>

    <connection from="-130772954#1" to="-267677425#2" fromLane="0" toLane="0"/>
    <connection from="-130772954#1" to="-126303361#7" fromLane="0" toLane="1"/>
    <connection from="-130772954#1" to="-126303361#7" fromLane="1" toLane="2"/>
    <connection from="-130772954#1" to="-392346659#1" fromLane="1" toLane="0"/>
    <connection from="-130772954#1" to="130772954#1" fromLane="1" toLane="1"/>

    <connection from="-130788155#1" to="130788192#0" fromLane="0" toLane="0"/>
    <connection from="-130788155#1" to="-434444693#2" fromLane="0" toLane="1"/>
    <connection from="-130788155#1" to="-321444899#2" fromLane="0" toLane="1"/>
    <connection from="-130788155#1" to="130788155#0" fromLane="0" toLane="0"/>

    <connection from="-130788158#1" to="-469165494" fromLane="0" toLane="0"/>

    <connection from="-130788167#0" to="50524890#1" fromLane="0" toLane="0"/>
    <connection from="-130788167#0" to="-130788158#1" fromLane="0" toLane="0"/>
    <connection from="-130788167#0" to="130802362#1" fromLane="0" toLane="3"/>
    <connection from="-130788167#0" to="130788167#0" fromLane="0" toLane="0"/>

    <connection from="-130788167#2" to="-130788167#0" fromLane="0" toLane="0"/>
    <connection from="-130788167#2" to="-565480517" fromLane="0" toLane="0"/>
    <connection from="-130788167#2" to="130788167#1" fromLane="0" toLane="0"/>

    <connection from="-130788190" to="308739814#0" fromLane="0" toLane="0"/>
    <connection from="-130788190" to="-130788195" fromLane="0" toLane="1"/>
    <connection from="-130788190" to="130788190" fromLane="0" toLane="1"/>

    <connection from="-130788192#2" to="-434444693#2" fromLane="0" toLane="0"/>
    <connection from="-130788192#2" to="-321444899#2" fromLane="0" toLane="0"/>
    <connection from="-130788192#2" to="-321444899#2" fromLane="1" toLane="1"/>
    <connection from="-130788192#2" to="130788155#0" fromLane="1" toLane="0"/>
    <connection from="-130788192#2" to="130788192#0" fromLane="1" toLane="1"/>

    <connection from="-130788195" to="-130788192#2" fromLane="0" toLane="0"/>
    <connection from="-130788195" to="-130788192#2" fromLane="1" toLane="1"/>
    <connection from="-130788195" to="130788195" fromLane="1" toLane="1"/>

    <connection from="-130788227#2" to="421037439#0" fromLane="0" toLane="0"/>
    <connection from="-130788227#2" to="-421037430#1" fromLane="0" toLane="0"/>
    <connection from="-130788227#2" to="-421037430#1" fromLane="1" toLane="1"/>
    <connection from="-130788227#2" to="-47916247#4" fromLane="1" toLane="1"/>
    <connection from="-130788227#2" to="130788227#0" fromLane="1" toLane="1"/>

    <connection from="-130788227#5" to="494988146#0" fromLane="0" toLane="0"/>
    <connection from="-130788227#5" to="-130788227#2" fromLane="0" toLane="0"/>
    <connection from="-130788227#5" to="-130788227#2" fromLane="1" toLane="1"/>
    <connection from="-130788227#5" to="-50511365#7" fromLane="1" toLane="0"/>
    <connection from="-130788227#5" to="130788227#3" fromLane="1" toLane="1"/>

    <connection from="-130802359#1" to="-297382769#5" fromLane="0" toLane="0"/>
    <connection from="-130802359#1" to="-297382769#5" fromLane="1" toLane="1"/>
    <connection from="-130802359#1" to="-297382769#5" fromLane="2" toLane="2"/>

    <connection from="-130802359#2" to="957782822#0" fromLane="0" toLane="0"/>
    <connection from="-130802359#2" to="-130802359#1" fromLane="0" toLane="0"/>
    <connection from="-130802359#2" to="-130802359#1" fromLane="1" toLane="1"/>
    <connection from="-130802359#2" to="-130802359#1" fromLane="2" toLane="2"/>
    <connection from="-130802359#2" to="130802359#2" fromLane="2" toLane="2"/>

    <connection from="-130802371#2" to="-347003328#2" fromLane="0" toLane="0"/>
    <connection from="-130802371#2" to="-397303092#2" fromLane="0" toLane="0"/>
    <connection from="-130802371#2" to="-397303092#2" fromLane="1" toLane="1"/>
    <connection from="-130802371#2" to="-397303092#2" fromLane="2" toLane="2"/>
    <connection from="-130802371#2" to="130802371#0" fromLane="2" toLane="1"/>

    <connection from="-130802376#2" to="-397321701#2" fromLane="0" toLane="0"/>

    <connection from="-130889749#1" to="50260020#0" fromLane="0" toLane="0"/>
    <connection from="-130889749#1" to="130927087#0" fromLane="0" toLane="0"/>
    <connection from="-130889749#1" to="130927087#0" fromLane="1" toLane="1"/>
    <connection from="-130889749#1" to="130927087#0" fromLane="2" toLane="2"/>
    <connection from="-130889749#1" to="130889749#0" fromLane="3" toLane="2"/>

    <connection from="-130889749#2" to="-565410335#2" fromLane="0" toLane="0"/>
    <connection from="-130889749#2" to="-130889749#1" fromLane="0" toLane="0"/>
    <connection from="-130889749#2" to="-130889749#1" fromLane="1" toLane="1"/>
    <connection from="-130889749#2" to="-130889749#1" fromLane="2" toLane="2"/>
    <connection from="-130889749#2" to="-130889749#1" fromLane="3" toLane="3"/>
    <connection from="-130889749#2" to="565410339" fromLane="3" toLane="0"/>
    <connection from="-130889749#2" to="130889749#2" fromLane="3" toLane="2"/>

    <connection from="-130907982#1" to="50797101" fromLane="0" toLane="0"/>
    <connection from="-130907982#1" to="-6053702#4" fromLane="1" toLane="0"/>
    <connection from="-130907982#1" to="509326344#0" fromLane="1" toLane="1"/>

    <connection from="-130908059#2" to="-131052512#5" fromLane="0" toLane="0"/>
    <connection from="-130908059#2" to="-6057544#5" fromLane="0" toLane="0"/>
    <connection from="-130908059#2" to="297380211#0" fromLane="0" toLane="0"/>
    <connection from="-130908059#2" to="130908059#0" fromLane="0" toLane="1"/>

    <connection from="-130908282" to="-438960035#1" fromLane="0" toLane="1"/>
    <connection from="-130908282" to="130908282" fromLane="0" toLane="1"/>

    <connection from="-130908283#0" to="-352411913#1" fromLane="0" toLane="0"/>
    <connection from="-130908283#0" to="-438964977" fromLane="0" toLane="0"/>
    <connection from="-130908283#0" to="-438964977" fromLane="1" toLane="1"/>
    <connection from="-130908283#0" to="130908283#0" fromLane="1" toLane="1"/>

    <connection from="-130908283#1" to="520532361#0" fromLane="0" toLane="0"/>
    <connection from="-130908283#1" to="-130908283#0" fromLane="0" toLane="0"/>
    <connection from="-130908283#1" to="-130908283#0" fromLane="1" toLane="1"/>
    <connection from="-130908283#1" to="130908283#1" fromLane="1" toLane="1"/>

    <connection from="-130908283#2" to="-130908283#1" fromLane="0" toLane="0"/>
    <connection from="-130908283#2" to="-130908283#1" fromLane="1" toLane="1"/>
    <connection from="-130908283#2" to="130908283#2" fromLane="1" toLane="1"/>

    <connection from="-130908283#4" to="565463085#0" fromLane="0" toLane="0"/>
    <connection from="-130908283#4" to="-130908283#2" fromLane="0" toLane="0"/>
    <connection from="-130908283#4" to="-130908283#2" fromLane="1" toLane="1"/>
    <connection from="-130908283#4" to="130908283#3" fromLane="1" toLane="1"/>

    <connection from="-130927087#2" to="50260019#0" fromLane="0" toLane="0"/>
    <connection from="-130927087#2" to="130889749#0" fromLane="0" toLane="1"/>
    <connection from="-130927087#2" to="130889749#0" fromLane="0" toLane="2"/>
    <connection from="-130927087#2" to="50260020#0" fromLane="0" toLane="2"/>
    <connection from="-130927087#2" to="130927087#0" fromLane="0" toLane="2"/>

    <connection from="-131052297#2" to="-297294791#2" fromLane="0" toLane="0"/>
    <connection from="-131052297#2" to="297294792#0" fromLane="0" toLane="2"/>
    <connection from="-131052297#2" to="131052297#0" fromLane="0" toLane="0"/>

    <connection from="-131052297#5" to="-397321700#2" fromLane="0" toLane="0"/>
    <connection from="-131052297#5" to="-131052297#2" fromLane="0" toLane="0"/>
    <connection from="-131052297#5" to="297368625#0" fromLane="0" toLane="1"/>
    <connection from="-131052297#5" to="131052297#3" fromLane="0" toLane="0"/>

    <connection from="-131052297#8" to="-131052297#5" fromLane="0" toLane="0"/>
    <connection from="-131052297#8" to="26572919#0" fromLane="0" toLane="0"/>
    <connection from="-131052297#8" to="131052297#6" fromLane="0" toLane="0"/>

    <connection from="-131052512#1" to="-397327937#1" fromLane="0" toLane="0"/>
    <connection from="-131052512#1" to="-6059107#6" fromLane="0" toLane="1"/>
    <connection from="-131052512#1" to="333922766#0" fromLane="0" toLane="0"/>
    <connection from="-131052512#1" to="131052512#0" fromLane="0" toLane="0"/>

    <connection from="-131052512#2" to="-131052512#1" fromLane="0" toLane="0"/>
    <connection from="-131052512#2" to="-565123332#1" fromLane="0" toLane="0"/>
    <connection from="-131052512#2" to="131052512#2" fromLane="0" toLane="0"/>

    <connection from="-131052512#3" to="-565123331#1" fromLane="0" toLane="0"/>
    <connection from="-131052512#3" to="-131052512#2" fromLane="0" toLane="0"/>
    <connection from="-131052512#3" to="131052512#3" fromLane="0" toLane="0"/>

    <connection from="-131052512#5" to="-131052512#3" fromLane="0" toLane="0"/>
    <connection from="-131052512#5" to="-565123335" fromLane="0" toLane="0"/>
    <connection from="-131052512#5" to="131052512#4" fromLane="0" toLane="0"/>

    <connection from="-131076063#1" to="131076097#0" fromLane="0" toLane="0"/>
    <connection from="-131076063#1" to="-397329578#1" fromLane="0" toLane="0"/>
    <connection from="-131076063#1" to="131076063#0" fromLane="0" toLane="0"/>

    <connection from="-148762106#1" to="-421037430#1" fromLane="0" toLane="0"/>
    <connection from="-148762106#1" to="-47916247#4" fromLane="0" toLane="0"/>
    <connection from="-148762106#1" to="-47916247#4" fromLane="1" toLane="1"/>
    <connection from="-148762106#1" to="130788227#0" fromLane="1" toLane="1"/>
    <connection from="-148762106#1" to="421037439#0" fromLane="1" toLane="1"/>

    <connection from="-155011691" to="-29961175#1" fromLane="0" toLane="0"/>
    <connection from="-155011691" to="-29961175#1" fromLane="0" toLane="1"/>
    <connection from="-155011691" to="155011691" fromLane="0" toLane="3"/>

    <connection from="-170825572#0" to="6057179#1" fromLane="0" toLane="0"/>
    <connection from="-170825572#0" to="170825572#0" fromLane="0" toLane="0"/>

    <connection from="-170825572#2" to="-170825572#0" fromLane="0" toLane="0"/>
    <connection from="-170825572#2" to="66697294#0" fromLane="0" toLane="0"/>
    <connection from="-170825572#2" to="170825572#1" fromLane="0" toLane="0"/>

    <connection from="-170825572#3" to="-887434558#1" fromLane="0" toLane="0"/>
    <connection from="-170825572#3" to="-170825572#2" fromLane="0" toLane="0"/>
    <connection from="-170825572#3" to="170825572#3" fromLane="0" toLane="0"/>

    <connection from="-170825572#5" to="887786072#0" fromLane="0" toLane="0"/>
    <connection from="-170825572#5" to="-170825572#3" fromLane="0" toLane="0"/>
    <connection from="-170825572#5" to="170825572#4" fromLane="0" toLane="0"/>

    <connection from="-170825576#1" to="170825576#0" fromLane="0" toLane="0"/>

    <connection from="-175873836#2" to="345709542#0" fromLane="0" toLane="0"/>
    <connection from="-175873836#2" to="345709542#0" fromLane="0" toLane="1"/>
    <connection from="-175873836#2" to="130802372#0" fromLane="0" toLane="0"/>
    <connection from="-175873836#2" to="130802372#0" fromLane="1" toLane="1"/>
    <connection from="-175873836#2" to="130802372#0" fromLane="2" toLane="2"/>
    <connection from="-175873836#2" to="175873836#0" fromLane="2" toLane="1"/>

    <connection from="-176111813#1" to="176111813#0" fromLane="0" toLane="0"/>

    <connection from="-181611426#1" to="-26707922#2" fromLane="0" toLane="0"/>
    <connection from="-181611426#1" to="26707922#3" fromLane="0" toLane="0"/>
    <connection from="-181611426#1" to="181611426#0" fromLane="0" toLane="0"/>

    <connection from="-181611426#3" to="745522547#0" fromLane="0" toLane="0"/>
    <connection from="-181611426#3" to="-181611426#1" fromLane="0" toLane="0"/>
    <connection from="-181611426#3" to="181611426#2" fromLane="0" toLane="0"/>

    <connection from="-202992519#2" to="202992522#0" fromLane="0" toLane="0"/>
    <connection from="-202992519#2" to="-468441158#1" fromLane="0" toLane="0"/>
    <connection from="-202992519#2" to="-468441158#1" fromLane="1" toLane="1"/>
    <connection from="-202992519#2" to="-468441158#1" fromLane="2" toLane="2"/>
    <connection from="-202992519#2" to="-297296751#2" fromLane="2" toLane="0"/>
    <connection from="-202992519#2" to="202992519#0" fromLane="2" toLane="2"/>

    <connection from="-202992520#1" to="589551087#0" fromLane="0" toLane="0"/>
    <connection from="-202992520#1" to="-6057595#2" fromLane="0" toLane="0"/>
    <connection from="-202992520#1" to="-6057595#2" fromLane="1" toLane="1"/>
    <connection from="-202992520#1" to="202992520#0" fromLane="1" toLane="1"/>

    <connection from="-202992520#3" to="-202992520#1" fromLane="0" toLane="0"/>
    <connection from="-202992520#3" to="-202992520#1" fromLane="1" toLane="1"/>
    <connection from="-202992520#3" to="202992520#2" fromLane="1" toLane="1"/>

    <connection from="-202992520#5" to="520468342" fromLane="0" toLane="0"/>
    <connection from="-202992520#5" to="-202992520#3" fromLane="0" toLane="0"/>
    <connection from="-202992520#5" to="-202992520#3" fromLane="1" toLane="1"/>
    <connection from="-202992520#5" to="-590581593#5" fromLane="1" toLane="0"/>
    <connection from="-202992520#5" to="202992520#4" fromLane="1" toLane="1"/>

    <connection from="-202992520#6" to="-202992520#5" fromLane="0" toLane="0"/>
    <connection from="-202992520#6" to="-202992520#5" fromLane="1" toLane="1"/>
    <connection from="-202992520#6" to="202992520#6" fromLane="1" toLane="1"/>

    <connection from="-202992520#7" to="-202992520#6" fromLane="0" toLane="0"/>
    <connection from="-202992520#7" to="-202992520#6" fromLane="1" toLane="1"/>
    <connection from="-202992520#7" to="-345265338#2" fromLane="1" toLane="0"/>
    <connection from="-202992520#7" to="202992520#7" fromLane="1" toLane="1"/>

    <connection from="-202992522#1" to="-468441158#1" fromLane="0" toLane="0"/>
    <connection from="-202992522#1" to="-297296751#2" fromLane="0" toLane="0"/>
    <connection from="-202992522#1" to="202992519#0" fromLane="0" toLane="2"/>
    <connection from="-202992522#1" to="202992522#0" fromLane="0" toLane="0"/>

    <connection from="-202992522#3" to="345265328#0" fromLane="0" toLane="0"/>
    <connection from="-202992522#3" to="-202992522#1" fromLane="0" toLane="0"/>
    <connection from="-202992522#3" to="202992522#2" fromLane="0" toLane="0"/>

    <connection from="-202992524#2" to="-130802376#2" fromLane="0" toLane="0"/>
    <connection from="-202992524#2" to="-202992522#3" fromLane="0" toLane="0"/>
    <connection from="-202992524#2" to="589551086#0" fromLane="0" toLane="0"/>
    <connection from="-202992524#2" to="202992524#0" fromLane="0" toLane="0"/>

    <connection from="-202992524#4" to="-6061387#5" fromLane="0" toLane="0"/>
    <connection from="-202992524#4" to="-202992524#2" fromLane="0" toLane="0"/>
    <connection from="-202992524#4" to="202992524#3" fromLane="0" toLane="0"/>

    <connection from="-202992524#7" to="29961183#3" fromLane="0" toLane="0"/>
    <connection from="-202992524#7" to="-202992524#4" fromLane="0" toLane="0"/>
    <connection from="-202992524#7" to="202992524#5" fromLane="0" toLane="0"/>

    <connection from="-203025089#1" to="-203025090#3" fromLane="0" toLane="0"/>
    <connection from="-203025089#1" to="-468450579#1" fromLane="0" toLane="0"/>
    <connection from="-203025089#1" to="-468450579#1" fromLane="1" toLane="1"/>
    <connection from="-203025089#1" to="-468450579#1" fromLane="2" toLane="2"/>
    <connection from="-203025089#1" to="-468450579#1" fromLane="3" toLane="3"/>
    <connection from="-203025089#1" to="-397321697#1" fromLane="3" toLane="2"/>
    <connection from="-203025089#1" to="203025089#0" fromLane="3" toLane="3"/>

    <connection from="-203025089#2" to="-203025089#1" fromLane="0" toLane="0"/>
    <connection from="-203025089#2" to="-203025089#1" fromLane="1" toLane="1"/>
    <connection from="-203025089#2" to="-203025089#1" fromLane="2" toLane="2"/>
    <connection from="-203025089#2" to="-203025089#1" fromLane="3" toLane="3"/>
    <connection from="-203025089#2" to="293445997#0" fromLane="3" toLane="0"/>
    <connection from="-203025089#2" to="203025089#2" fromLane="3" toLane="3"/>

    <connection from="-203025090#1" to="146537578#0" fromLane="0" toLane="0"/>
    <connection from="-203025090#1" to="29961168#0" fromLane="0" toLane="0"/>
    <connection from="-203025090#1" to="29961168#0" fromLane="1" toLane="1"/>
    <connection from="-203025090#1" to="297368443#0" fromLane="2" toLane="3"/>
    <connection from="-203025090#1" to="203025090#0" fromLane="2" toLane="2"/>

    <connection from="-203025090#3" to="-203025090#1" fromLane="0" toLane="0"/>
    <connection from="-203025090#3" to="-203025090#1" fromLane="1" toLane="1"/>
    <connection from="-203025090#3" to="-203025090#1" fromLane="2" toLane="2"/>
    <connection from="-203025090#3" to="912464966#0" fromLane="2" toLane="0"/>
    <connection from="-203025090#3" to="203025090#2" fromLane="2" toLane="2"/>

    <connection from="-203119342#1" to="347003229#0" fromLane="0" toLane="0"/>
    <connection from="-203119342#1" to="-397327121#1" fromLane="0" toLane="0"/>
    <connection from="-203119342#1" to="-397327121#1" fromLane="1" toLane="1"/>
    <connection from="-203119342#1" to="-397327121#1" fromLane="2" toLane="2"/>
    <connection from="-203119342#1" to="203119342#0" fromLane="2" toLane="2"/>

    <connection from="-203119343" to="50429923" fromLane="0" toLane="0"/>
    <connection from="-203119343" to="-521198981" fromLane="0" toLane="0"/>
    <connection from="-203119343" to="-521198981" fromLane="1" toLane="1"/>
    <connection from="-203119343" to="203119343" fromLane="1" toLane="1"/>

    <connection from="-206306594#2" to="-296365351#4" fromLane="0" toLane="0"/>
    <connection from="-206306594#2" to="296365351#5" fromLane="0" toLane="0"/>
    <connection from="-206306594#2" to="206306594#0" fromLane="0" toLane="0"/>

    <connection from="-206306596#1" to="206306596#0" fromLane="0" toLane="0"/>

    <connection from="-206306596#2" to="-206306598#2" fromLane="0" toLane="0"/>
    <connection from="-206306596#2" to="-206306596#1" fromLane="0" toLane="0"/>
    <connection from="-206306596#2" to="206306596#2" fromLane="0" toLane="0"/>

    <connection from="-206306596#4" to="-206306599" fromLane="0" toLane="0"/>
    <connection from="-206306596#4" to="-206306596#2" fromLane="0" toLane="0"/>
    <connection from="-206306596#4" to="206306596#3" fromLane="0" toLane="0"/>

    <connection from="-206306598#1" to="206306598#0" fromLane="0" toLane="0"/>

    <connection from="-206306598#2" to="206306599" fromLane="0" toLane="0"/>
    <connection from="-206306598#2" to="-206306598#1" fromLane="0" toLane="0"/>
    <connection from="-206306598#2" to="206306598#2" fromLane="0" toLane="0"/>

    <connection from="-206306599" to="-206306598#1" fromLane="0" toLane="0"/>
    <connection from="-206306599" to="206306598#2" fromLane="0" toLane="0"/>
    <connection from="-206306599" to="206306599" fromLane="0" toLane="0"/>

    <connection from="-210099429" to="210099429" fromLane="0" toLane="0"/>

    <connection from="-222474494" to="-222474500#1" fromLane="0" toLane="0"/>
    <connection from="-222474494" to="222474500#2" fromLane="0" toLane="0"/>
    <connection from="-222474494" to="222474494" fromLane="0" toLane="0"/>

    <connection from="-222474496#1" to="-397318414#1" fromLane="0" toLane="0"/>
    <connection from="-222474496#1" to="397318412#0" fromLane="0" toLane="1"/>
    <connection from="-222474496#1" to="222474496#0" fromLane="0" toLane="0"/>

    <connection from="-222474500#1" to="297380210#2" fromLane="0" toLane="0"/>
    <connection from="-222474500#1" to="-297380210#1" fromLane="0" toLane="1"/>
    <connection from="-222474500#1" to="222474500#0" fromLane="0" toLane="0"/>

    <connection from="-222474500#2" to="222474494" fromLane="0" toLane="0"/>
    <connection from="-222474500#2" to="-222474500#1" fromLane="0" toLane="0"/>
    <connection from="-222474500#2" to="222474500#2" fromLane="0" toLane="0"/>

    <connection from="-222474500#3" to="-222474496#1" fromLane="0" toLane="0"/>
    <connection from="-222474500#3" to="-222474500#2" fromLane="0" toLane="0"/>
    <connection from="-222474500#3" to="222474500#3" fromLane="0" toLane="0"/>

    <connection from="-236001976" to="297400412" fromLane="0" toLane="0"/>
    <connection from="-236001976" to="-236002215#1" fromLane="0" toLane="0"/>