<?xml version="1.0" encoding="UTF-8"?>

<!-- generated on 2021-10-16 20:39:36 by Eclipse SUMO netconvert Version 1.10.0
<configuration xmlns:xsi="http://www.w3.org/2001/XMLSchema-instance" xsi:noNamespaceSchemaLocation="http://sumo.dlr.de/xsd/netconvertConfiguration.xsd">

    <input>
        <sumo-net-file value="washingtondc.net.xml"/>
    </input>

    <output>
        <plain-output-prefix value="washingtondc"/>
    </output>

    <processing>
        <geometry.min-radius.fix.railways value="false"/>
        <geometry.max-grade.fix value="false"/>
        <offset.disable-normalization value="true"/>
        <lefthand value="false"/>
    </processing>

    <junctions>
        <no-internal-links value="true"/>
        <no-turnarounds value="true"/>
        <junctions.corner-detail value="5"/>
        <junctions.limit-turn-speed value="5.5"/>
        <rectangular-lane-cut value="false"/>
    </junctions>

    <pedestrian>
        <walkingareas value="false"/>
    </pedestrian>

    <report>
        <aggregate-warnings value="5"/>
    </report>

</configuration>
-->

<edges version="1.9" xmlns:xsi="http://www.w3.org/2001/XMLSchema-instance" xsi:noNamespaceSchemaLocation="http://sumo.dlr.de/xsd/edges_file.xsd">
    <edge id="-108402216#0" from="5445932327" to="1243960690" priority="1" type="highway.service" numLanes="1" speed="5.56" allow="pedestrian delivery bicycle"/>
    <edge id="-108402216#1" from="1243960638" to="5445932327" priority="1" type="highway.service" numLanes="1" speed="5.56" allow="pedestrian delivery bicycle"/>
    <edge id="-108402217#0" from="5445789493" to="1243960707" priority="1" type="highway.service" numLanes="1" speed="5.56" allow="pedestrian delivery bicycle"/>
    <edge id="-108402217#1" from="1243960712" to="5445789493" priority="1" type="highway.service" numLanes="1" speed="5.56" allow="pedestrian delivery bicycle"/>
    <edge id="-120478418#1" from="49748771" to="2504794158" priority="12" type="highway.primary" numLanes="4" speed="11.18" shape="1207.00,201.71 1183.46,202.06 1170.72,202.37" disallow="tram rail_urban rail rail_electric rail_fast ship">
        <param key="ref" value="US 50"/>
    </edge>
    <edge id="-120478418#3" from="8254268653" to="49748771" priority="12" type="highway.primary" numLanes="4" speed="11.18" shape="1424.99,196.89 1413.49,197.19 1207.00,201.71" disallow="tram rail_urban rail rail_electric rail_fast ship">
        <param key="ref" value="US 50"/>
    </edge>
    <edge id="-120478419#1" from="1350845800" to="520072065" priority="12" type="highway.primary" numLanes="4" speed="11.18" shape="1766.38,188.54 1807.75,187.79 1822.65,187.16" disallow="tram rail_urban rail rail_electric rail_fast ship">
        <param key="ref" value="US 50"/>
    </edge>
    <edge id="-120478694#2" from="520072065" to="4303519741" priority="12" type="highway.primary" numLanes="3" speed="27.78" shape="1822.65,187.16 1822.53,171.25 1822.52,166.56 1821.59,97.93 1819.87,32.63 1819.50,14.09 1819.35,9.75 1819.03,0.96" disallow="tram rail_urban rail rail_electric rail_fast ship">
        <param key="ref" value="US 1"/>
    </edge>
    <edge id="-120478695#2" from="49762383" to="3669554878" priority="12" type="highway.primary" numLanes="3" speed="27.78" shape="2883.31,854.24 2883.25,842.26 2881.33,759.10 2881.07,746.38" disallow="tram rail_urban rail rail_electric rail_fast ship">
        <param key="ref" value="US 1;US 50;I 395 Alt"/>
    </edge>
    <edge id="-120478695#3" from="2790488427" to="49762383" priority="12" type="highway.primary" numLanes="3" speed="27.78" disallow="tram rail_urban rail rail_electric rail_fast ship">
        <param key="ref" value="US 1;US 50;I 395 Alt"/>
    </edge>
    <edge id="-121782030#0" from="3705029882" to="1362307949" priority="1" type="highway.service" numLanes="1" speed="5.56" shape="795.06,1616.02 796.49,1615.98 857.43,1615.15" allow="pedestrian delivery bicycle"/>
    <edge id="-121782030#1" from="1362307943" to="3705029882" priority="1" type="highway.service" numLanes="1" speed="5.56" allow="pedestrian delivery bicycle"/>
    <edge id="-121782031" from="5054301682" to="1362307956" priority="1" type="highway.service" numLanes="1" speed="5.56" allow="pedestrian delivery bicycle"/>
    <edge id="-121980349" from="635178634" to="262295428" priority="12" type="highway.primary" numLanes="2" speed="27.78" disallow="tram rail_urban rail rail_electric rail_fast ship"/>
    <edge id="-121980352" from="49842924" to="641116216" priority="12" type="highway.primary" numLanes="3" speed="27.78" disallow="tram rail_urban rail rail_electric rail_fast ship"/>
    <edge id="-125568108#1" from="4772585558" to="49734104" priority="12" type="highway.primary" numLanes="1" speed="27.78" shape="2280.53,1571.61 2279.54,1525.92 2279.40,1517.52" disallow="tram rail_urban rail rail_electric rail_fast ship">
        <param key="ref" value="US 29"/>
    </edge>
    <edge id="-125568108#2" from="5446746094" to="4772585558" priority="12" type="highway.primary" numLanes="1" speed="27.78" disallow="tram rail_urban rail rail_electric rail_fast ship">
        <param key="ref" value="US 29"/>
    </edge>
    <edge id="-125568108#4" from="3012829798" to="5446746094" priority="12" type="highway.primary" numLanes="1" speed="27.78" shape="2282.93,1681.78 2282.77,1672.69 2282.00,1640.71" disallow="tram rail_urban rail rail_electric rail_fast ship">
        <param key="ref" value="US 29"/>
    </edge>
    <edge id="-125568108#7" from="3995242874" to="3012829798" priority="12" type="highway.primary" numLanes="1" speed="27.78" shape="2289.30,1966.57 2289.23,1960.20 2288.52,1935.76 2287.94,1903.18 2287.49,1886.42 2287.18,1868.71 2287.06,1858.71 2286.86,1850.21 2284.00,1733.45 2282.92,1692.93 2282.93,1681.78" disallow="tram rail_urban rail rail_electric rail_fast ship">
        <param key="ref" value="US 29"/>
    </edge>
    <edge id="-126303356#1" from="4697534334" to="49764289" priority="12" type="highway.primary" numLanes="2" speed="27.78" shape="1737.62,1347.27 1716.31,1347.75 1703.58,1348.49" disallow="tram rail_urban rail rail_electric rail_fast ship">
        <param key="ref" value="US 29"/>
    </edge>
    <edge id="-126303361#1" from="cluster_3027665435_3547111213" to="3027663729" priority="11" type="highway.secondary" numLanes="3" speed="27.78" shape="1850.52,1411.37 1849.52,1365.22 1849.23,1357.27" disallow="tram rail_urban rail rail_electric rail_fast ship"/>
    <edge id="-126303361#4" from="49745644" to="cluster_3027665435_3547111213" priority="11" type="highway.secondary" numLanes="3" speed="27.78" shape="1851.82,1479.05 1851.81,1469.32 1850.92,1430.93 1850.67,1415.61" disallow="tram rail_urban rail rail_electric rail_fast ship"/>
    <edge id="-126303361#7" from="cluster_1439430728_3955782119" to="49745644" priority="11" type="highway.secondary" numLanes="3" speed="27.78" shape="1852.85,1520.25 1851.95,1489.70 1851.89,1484.43 1851.82,1479.05" disallow="tram rail_urban rail rail_electric rail_fast ship"/>
    <edge id="-126303362#1" from="cluster_2053263870_8245233135_8245233140" to="49764249" priority="12" type="highway.primary" numLanes="2" speed="27.78" shape="1687.03,573.93 1687.40,588.38 1689.16,655.73 1689.43,669.11" disallow="tram rail_urban rail rail_electric rail_fast ship"/>
    <edge id="-126303366#1" from="1240476053" to="49770789" priority="12" type="highway.primary" numLanes="3" speed="27.78" shape="1198.00,1302.68 1196.52,1238.23 1196.23,1226.03" disallow="tram rail_urban rail rail_electric rail_fast ship"/>
    <edge id="-130285136#2" from="1381212154" to="4629734412" priority="11" type="highway.secondary" numLanes="2" speed="27.78" shape="844.76,1110.02 855.22,1105.28 893.95,1086.90 917.05,1075.89" disallow="tram rail_urban rail rail_electric rail_fast ship"/>
    <edge id="-130772954#1" from="cluster_1363151551_7794354473" to="cluster_1439430728_3955782119" priority="11" type="highway.secondary" numLanes="2" speed="27.78" shape="1853.33,1535.69 1853.11,1528.10" disallow="tram rail_urban rail rail_electric rail_fast ship"/>
    <edge id="-130788155#1" from="49846819" to="49773539" priority="10" type="highway.tertiary" numLanes="1" speed="22.22" shape="2366.48,1333.68 2289.17,1334.88 2275.71,1335.01" disallow="tram rail_urban rail rail_electric rail_fast ship"/>
    <edge id="-130788158#1" from="cluster_49765145_647622726_647622728" to="3001409611" priority="11" type="highway.secondary" numLanes="1" speed="27.78" shape="374.57,1512.51 367.08,1503.14 362.52,1497.15" disallow="tram rail_urban rail rail_electric rail_fast ship"/>
    <edge id="-130788167#0" from="5445932316" to="cluster_49765145_647622726_647622728" priority="11" type="highway.secondary" numLanes="1" speed="11.18" shape="424.31,1576.22 390.35,1532.39" disallow="tram rail_urban rail rail_electric rail_fast ship"/>
    <edge id="-130788167#2" from="49765155" to="5445932316" priority="11" type="highway.secondary" numLanes="1" speed="11.18" shape="504.85,1680.99 492.81,1665.94 489.18,1661.41 424.31,1576.22" disallow="tram rail_urban rail rail_electric rail_fast ship"/>
    <edge id="-130788190" from="49734104" to="49773544" priority="12" type="highway.primary" numLanes="1" speed="27.78" shape="2279.40,1517.52 2279.28,1511.98 2279.03,1503.71 2278.73,1493.79" disallow="tram rail_urban rail rail_electric rail_fast ship">
        <param key="ref" value="US 29"/>
    </edge>
    <edge id="-130788192#2" from="49773543" to="49773539" priority="12" type="highway.primary" numLanes="2" speed="27.78" shape="2278.15,1470.40 2278.05,1462.82 2275.75,1345.63 2275.71,1335.01" disallow="tram rail_urban rail rail_electric rail_fast ship">
        <param key="ref" value="US 29"/>
    </edge>
    <edge id="-130788195" from="49773544" to="49773543" priority="12" type="highway.primary" numLanes="2" speed="27.78" shape="2278.73,1493.79 2278.36,1482.49 2278.15,1470.40" disallow="tram rail_urban rail rail_electric rail_fast ship">
        <param key="ref" value="US 29"/>
    </edge>
    <edge id="-130788227#2" from="3012784288" to="3012784293" priority="11" type="highway.secondary" numLanes="2" speed="27.78" shape="2725.68,1672.10 2725.38,1663.49 2722.24,1521.72 2721.52,1507.53" disallow="tram rail_urban rail rail_electric rail_fast ship"/>
    <edge id="-130788227#5" from="49773027" to="3012784288" priority="11" type="highway.secondary" numLanes="2" speed="27.78" shape="2730.97,1847.92 2730.67,1838.37 2730.35,1818.25 2729.55,1778.30 2727.52,1722.70 2726.06,1683.05 2725.68,1672.10" disallow="tram rail_urban rail rail_electric rail_fast ship"/>
    <edge id="-130802359#1" from="8862369621" to="49772987" priority="11" type="highway.secondary" numLanes="3" speed="11.18" shape="2797.82,1022.60 2725.31,1024.62 2712.81,1024.84" disallow="tram rail_urban rail rail_electric rail_fast ship"/>
    <edge id="-130802359#2" from="2790488465" to="8862369621" priority="11" type="highway.secondary" numLanes="3" speed="11.18" disallow="tram rail_urban rail rail_electric rail_fast ship"/>
    <edge id="-130802371#2" from="49764249" to="49764251" priority="12" type="highway.primary" numLanes="3" speed="27.78" shape="1689.43,669.11 1689.89,683.41 1691.03,759.17 1691.40,773.99" disallow="tram rail_urban rail rail_electric rail_fast ship"/>
    <edge id="-130802376#2" from="3669554857" to="49772987" priority="10" type="highway.tertiary" numLanes="1" speed="22.22" shape="2716.14,1141.69 2716.15,1131.21 2713.18,1036.56 2712.81,1024.84" disallow="tram rail_urban rail rail_electric rail_fast ship"/>
    <edge id="-130889749#1" from="5445407433" to="49777820" priority="11" type="highway.secondary" numLanes="4" speed="27.78" shape="2042.40,955.39 2043.67,1023.20 2043.74,1026.96 2044.32,1039.56" disallow="tram rail_urban rail rail_electric rail_fast ship"/>
    <edge id="-130889749#2" from="4001147641" to="5445407433" priority="11" type="highway.secondary" numLanes="4" speed="27.78" shape="2041.63,919.82 2042.31,950.46 2042.40,955.39" disallow="tram rail_urban rail rail_electric rail_fast ship"/>
    <edge id="-130907982#1" from="49750843" to="49741652" priority="10" type="highway.tertiary" numLanes="2" speed="22.22" shape="701.35,369.57 690.70,369.92 657.36,370.65 625.81,371.35 559.66,372.81 549.66,373.04" disallow="tram rail_urban rail rail_electric rail_fast ship"/>
    <edge id="-130908059#2" from="3669554878" to="3378616474" priority="10" type="highway.tertiary" numLanes="1" speed="22.22" shape="2881.07,746.38 2893.67,746.20 2952.65,744.86 2965.55,744.08" disallow="tram rail_urban rail rail_electric rail_fast ship"/>
    <edge id="-130908282" from="49764303" to="4325552565" priority="11" type="highway.secondary" numLanes="1" speed="27.78" disallow="tram rail_urban rail rail_electric rail_fast ship"/>
    <edge id="-130908283#0" from="1240476059" to="49770646" priority="11" type="highway.secondary" numLanes="2" speed="27.78" shape="1279.32,1344.55 1279.51,1349.89 1279.68,1357.62" disallow="tram rail_urban rail rail_electric rail_fast ship"/>
    <edge id="-130908283#1" from="5445790030" to="1240476059" priority="11" type="highway.secondary" numLanes="2" speed="27.78" disallow="tram rail_urban rail rail_electric rail_fast ship"/>
    <edge id="-130908283#2" from="5445790035" to="5445790030" priority="11" type="highway.secondary" numLanes="2" speed="27.78" disallow="tram rail_urban rail rail_electric rail_fast ship"/>
    <edge id="-130908283#4" from="49770640" to="5445790035" priority="11" type="highway.secondary" numLanes="2" speed="27.78" shape="1276.43,1224.66 1276.72,1237.41 1277.01,1248.33 1277.38,1263.22" disallow="tram rail_urban rail rail_electric rail_fast ship"/>
    <edge id="-130927087#2" from="cluster_3027616128_49813347" to="49777820" priority="11" type="highway.secondary" numLanes="1" speed="27.78" shape="2045.20,1076.91 2045.07,1068.62 2044.78,1055.23 2044.76,1054.47 2044.32,1039.56" disallow="tram rail_urban rail rail_electric rail_fast ship"/>
    <edge id="-131052297#2" from="3012429028" to="49767189" priority="10" type="highway.tertiary" numLanes="1" speed="22.22" shape="2700.41,467.50 2712.04,467.28 2862.17,464.18 2874.91,463.90" disallow="tram rail_urban rail rail_electric rail_fast ship"/>
    <edge id="-131052297#5" from="49767194" to="3012429028" priority="10" type="highway.tertiary" numLanes="1" speed="22.22" shape="2609.70,469.82 2619.56,469.53 2690.10,467.77 2700.41,467.50" disallow="tram rail_urban rail rail_electric rail_fast ship"/>
    <edge id="-131052297#8" from="49767196" to="49767194" priority="10" type="highway.tertiary" numLanes="1" speed="22.22" shape="2522.28,471.91 2533.44,471.70 2598.38,470.15 2609.70,469.82" disallow="tram rail_urban rail rail_electric rail_fast ship"/>
    <edge id="-131052512#1" from="5443498632" to="3670756365" priority="10" type="highway.tertiary" numLanes="1" speed="22.22" shape="2964.52,689.22 2962.77,621.18 2962.81,610.29" disallow="tram rail_urban rail rail_electric rail_fast ship"/>
    <edge id="-131052512#2" from="5443498630" to="5443498632" priority="10" type="highway.tertiary" numLanes="1" speed="22.22" disallow="tram rail_urban rail rail_electric rail_fast ship"/>
    <edge id="-131052512#3" from="5443498639" to="5443498630" priority="10" type="highway.tertiary" numLanes="1" speed="22.22" disallow="tram rail_urban rail rail_electric rail_fast ship"/>
    <edge id="-131052512#5" from="3378616474" to="5443498639" priority="10" type="highway.tertiary" numLanes="1" speed="22.22" shape="2965.55,744.08 2965.57,733.98 2965.28,727.69" disallow="tram rail_urban rail rail_electric rail_fast ship"/>
    <edge id="-131076063#1" from="3669554871" to="3669554868" priority="10" type="highway.tertiary" numLanes="1" speed="22.22" shape="2355.33,866.20 2516.07,863.37 2517.88,863.64 2520.15,864.42 2533.64,870.23" disallow="tram rail_urban rail rail_electric rail_fast ship"/>
    <edge id="-148762106#1" from="49810871" to="3012784293" priority="10" type="highway.tertiary" numLanes="2" speed="22.22" shape="2547.27,1512.15 2558.86,1512.06 2617.94,1511.60 2650.71,1510.87 2704.61,1508.22 2721.52,1507.53" disallow="tram rail_urban rail rail_electric rail_fast ship">
        <param key="ref" value="US 1;US 50"/>
    </edge>
    <edge id="-155011691" from="49773012" to="49773008" priority="12" type="highway.primary" numLanes="1" speed="27.78" disallow="tram rail_urban rail rail_electric rail_fast ship"/>
    <edge id="-170825572#0" from="2462913140" to="49716126" priority="1" type="highway.service" numLanes="1" speed="5.56" allow="pedestrian delivery bicycle"/>
    <edge id="-170825572#2" from="8250884989" to="2462913140" priority="1" type="highway.service" numLanes="1" speed="5.56" shape="1313.49,769.06 1311.99,699.08 1311.96,696.53 1311.89,693.74 1311.66,684.50 1310.58,679.41" allow="pedestrian delivery bicycle"/>
    <edge id="-170825572#3" from="5445790042" to="8250884989" priority="1" type="highway.service" numLanes="1" speed="5.56" allow="pedestrian delivery bicycle"/>
    <edge id="-170825572#5" from="8225844647" to="5445790042" priority="1" type="highway.service" numLanes="1" speed="5.56" shape="1317.60,934.36 1317.27,920.90 1316.99,914.93 1316.82,907.82 1316.65,900.66 1315.33,845.73" allow="pedestrian delivery bicycle"/>
    <edge id="-170825576#1" from="49770755" to="1819618425" priority="1" type="highway.service" numLanes="1" speed="5.56" shape="1182.25,680.86 1195.47,679.98 1206.21,679.93" allow="pedestrian delivery bicycle"/>
    <edge id="-175873836#2" from="876615335" to="49764271" priority="12" type="highway.primary" numLanes="3" speed="27.78" shape="1694.70,934.73 1694.06,953.79 1696.46,1071.16 1696.73,1078.94 1697.25,1093.11" disallow="tram rail_urban rail rail_electric rail_fast ship"/>
    <edge id="-176111813#1" from="1866789039" to="1866789043" priority="1" type="highway.service" numLanes="1" speed="5.56" shape="1628.32,1094.47 1628.22,1080.83 1628.21,1078.79 1626.53,989.79 1611.84,990.03" allow="pedestrian delivery bicycle"/>
    <edge id="-181611426#1" from="1920224632" to="1920224643" priority="1" type="highway.service" numLanes="1" speed="5.56" shape="1526.17,825.50 1526.09,780.57 1528.57,775.55 1532.17,771.91 1537.39,770.34 1552.36,770.02 1554.40,769.86 1567.24,769.57" allow="pedestrian delivery bicycle"/>
    <edge id="-181611426#3" from="1920224624" to="1920224632" priority="1" type="highway.service" numLanes="1" speed="5.56" shape="1568.63,833.06 1555.45,833.40 1553.50,833.45 1539.52,833.75 1535.23,832.77 1531.77,831.33 1529.54,829.91 1527.97,827.84 1526.17,825.50" allow="pedestrian delivery bicycle"/>
    <edge id="-202992519#2" from="3669554855" to="49793549" priority="12" type="highway.primary" numLanes="3" speed="27.78" shape="2891.24,1204.23 2890.72,1189.03 2889.86,1150.13 2889.94,1138.08" disallow="tram rail_urban rail rail_electric rail_fast ship">
        <param key="ref" value="US 1;US 50;I 395 Alt"/>
    </edge>
    <edge id="-202992520#1" from="3378222917" to="3669554855" priority="12" type="highway.primary" numLanes="2" speed="27.78" shape="2916.98,1191.92 2903.84,1198.10 2891.24,1204.23" disallow="tram rail_urban rail rail_electric rail_fast ship"/>
    <edge id="-202992520#3" from="3669554853" to="3378222917" priority="12" type="highway.primary" numLanes="2" speed="27.78" shape="2975.15,1164.53 2964.88,1169.29 2916.98,1191.92" disallow="tram rail_urban rail rail_electric rail_fast ship"/>
    <edge id="-202992520#5" from="cluster_3378222914_5445407479" to="3669554853" priority="12" type="highway.primary" numLanes="2" speed="27.78" shape="3044.25,1132.03 2984.80,1160.12 2975.15,1164.53" disallow="tram rail_urban rail rail_electric rail_fast ship"/>
    <edge id="-202992520#6" from="3378222913" to="cluster_3378222914_5445407479" priority="12" type="highway.primary" numLanes="2" speed="27.78" shape="3108.12,1101.49 3044.25,1132.03" disallow="tram rail_urban rail rail_electric rail_fast ship"/>
    <edge id="-202992520#7" from="9131079907" to="3378222913" priority="12" type="highway.primary" numLanes="2" speed="27.78" disallow="tram rail_urban rail rail_electric rail_fast ship"/>
    <edge id="-202992522#1" from="3519479351" to="49793549" priority="10" type="highway.tertiary" numLanes="1" speed="22.22" shape="2794.34,1140.14 2878.86,1138.50 2889.94,1138.08" disallow="tram rail_urban rail rail_electric rail_fast ship"/>
    <edge id="-202992522#3" from="3669554857" to="3519479351" priority="10" type="highway.tertiary" numLanes="1" speed="22.22" shape="2716.14,1141.69 2726.88,1141.53 2794.34,1140.14" disallow="tram rail_urban rail rail_electric rail_fast ship"/>
    <edge id="-202992524#2" from="3669554860" to="3669554857" priority="10" type="highway.tertiary" numLanes="1" speed="22.22" shape="2625.95,1143.97 2634.06,1143.73 2703.08,1141.92 2716.14,1141.69" disallow="tram rail_urban rail rail_electric rail_fast ship"/>
    <edge id="-202992524#4" from="49793566" to="3669554860" priority="10" type="highway.tertiary" numLanes="1" speed="22.22" shape="2536.54,1146.34 2549.03,1145.99 2625.95,1143.97" disallow="tram rail_urban rail rail_electric rail_fast ship"/>
    <edge id="-202992524#7" from="2629963166" to="49793566" priority="10" type="highway.tertiary" numLanes="1" speed="22.22" shape="2362.20,1150.96 2374.20,1150.65 2523.90,1146.80 2536.54,1146.34" disallow="tram rail_urban rail rail_electric rail_fast ship"/>
    <edge id="-203025089#1" from="2970474934" to="49748720" priority="12" type="highway.primary" numLanes="4" speed="11.18" shape="2834.10,162.88 2708.71,165.68 2693.91,165.94" disallow="tram rail_urban rail rail_electric rail_fast ship">
        <param key="ref" value="US 1;US 50"/>
    </edge>
    <edge id="-203025089#2" from="49748716" to="2970474934" priority="12" type="highway.primary" numLanes="4" speed="11.18" disallow="tram rail_urban rail rail_electric rail_fast ship">
        <param key="ref" value="US 1;US 50"/>
    </edge>
    <edge id="-203025090#1" from="8476470622" to="cluster_3012429749_3012429760_3670756352" priority="11" type="highway.secondary" numLanes="3" speed="27.78" shape="2694.90,250.33 2695.25,281.38 2695.37,294.00" disallow="tram rail_urban rail rail_electric rail_fast ship"/>
    <edge id="-203025090#3" from="49748720" to="8476470622" priority="11" type="highway.secondary" numLanes="3" speed="27.78" shape="2693.91,165.94 2693.66,183.77 2694.90,250.33" disallow="tram rail_urban rail rail_electric rail_fast ship"/>
    <edge id="-203119342#1" from="4629699766" to="49745636" priority="11" type="highway.secondary" numLanes="3" speed="27.78" shape="1847.76,1288.14 1847.57,1279.05 1847.29,1266.00 1846.52,1229.81 1846.38,1223.97 1846.32,1212.26" disallow="tram rail_urban rail rail_electric rail_fast ship"/>
    <edge id="-203119343" from="cluster_49809168_641116236" to="641116234" priority="12" type="highway.primary" numLanes="2" speed="11.18" shape="850.85,1366.70 837.16,1367.26" disallow="tram rail_urban rail rail_electric rail_fast ship">
        <param key="ref" value="US 29"/>
    </edge>
    <edge id="-206306594#2" from="2163081039" to="2163081028" priority="1" type="highway.service" numLanes="1" speed="5.56" shape="3126.75,847.99 3126.79,839.94 3123.82,834.07 3119.71,828.95 3112.78,825.96 3101.23,825.94 3086.38,825.45 3066.33,826.43 3058.83,828.65 3053.43,833.02 3049.80,836.94 3047.80,841.71 3047.47,850.44" allow="pedestrian delivery bicycle"/>
    <edge id="-206306596#1" from="2163081042" to="2163081041" priority="1" type="highway.service" numLanes="1" speed="5.56" shape="3183.53,812.35 3198.81,812.29 3205.78,811.99" allow="pedestrian delivery bicycle"/>
    <edge id="-206306596#2" from="2163081051" to="2163081042" priority="1" type="highway.service" numLanes="1" speed="5.56" shape="3161.88,760.67 3162.43,815.28 3179.32,814.77 3183.53,812.35" allow="pedestrian delivery bicycle"/>
    <edge id="-206306596#4" from="3669554883" to="2163081051" priority="1" type="highway.service" numLanes="1" speed="5.56" shape="3154.12,739.34 3154.51,748.34 3154.70,751.94 3161.86,758.35 3161.88,760.67" allow="pedestrian delivery bicycle"/>
    <edge id="-206306598#1" from="2163081049" to="2163081048" priority="1" type="highway.service" numLanes="1" speed="5.56" shape="3181.99,761.61 3197.61,760.88 3204.77,760.84" allow="pedestrian delivery bicycle"/>
    <edge id="-206306598#2" from="2163081042" to="2163081049" priority="1" type="highway.service" numLanes="1" speed="5.56" allow="pedestrian delivery bicycle"/>
    <edge id="-206306599" from="2163081051" to="2163081049" priority="1" type="highway.service" numLanes="1" speed="5.56" shape="3161.88,760.67 3178.25,760.05 3181.99,761.61" allow="pedestrian delivery bicycle"/>
    <edge id="-210099429" from="3012784294" to="2202269022" priority="1" type="highway.service" numLanes="1" speed="5.56" shape="2683.78,1673.56 2683.01,1678.21 2686.79,1848.91" allow="pedestrian delivery bicycle"/>
    <edge id="-222474494" from="2314446402" to="2314446399" priority="1" type="highway.service" numLanes="1" speed="5.56" allow="pedestrian delivery bicycle"/>
    <edge id="-222474496#1" from="2314446400" to="2314446381" priority="1" type="highway.service" numLanes="1" speed="5.56" shape="2419.21,688.85 2417.99,633.47 2417.70,623.16" allow="pedestrian delivery bicycle"/>
    <edge id="-222474500#1" from="2314446399" to="3669554873" priority="1" type="highway.service" numLanes="1" speed="5.56" shape="2439.13,688.41 2440.06,743.97 2440.01,756.80" allow="pedestrian delivery bicycle"/>
    <edge id="-222474500#2" from="2314446400" to="2314446399" priority="1" type="highway.service" numLanes="1" speed="5.56" allow="pedestrian delivery bicycle"/>
    <edge id="-222474500#3" from="2314446401" to="2314446400" priority="1" type="highway.service" numLanes="1" speed="5.56" allow="pedestrian delivery bicycle"/>
    <edge id="-236001976" from="8345668344" to="2440761314" priority="1" type="highway.service" numLanes="1" speed="5.56" allow="pedestrian delivery bicycle"/>
    <edge id="-236002215#0" from="5446746117" to="2440765418" priority="1" type="highway.service" numLanes="1" speed="5.56" shape="2461.42,1694.65 2462.43,1729.63 2462.55,1737.91 2463.01,1768.30 2463.55,1804.60 2464.33,1855.50" allow="pedestrian delivery bicycle"/>
    <edge id="-236002215#1" from="2440761314" to="5446746117" priority="1" type="highway.service" numLanes="1" speed="5.56" allow="pedestrian delivery bicycle"/>
    <edge id="-237664472#2" from="2455440114" to="2455440109" priority="1" type="highway.service" numLanes="1" speed="5.56" shape="1505.12,1790.89 1511.02,1788.00 1541.75,1766.49 1539.94,1707.45 1539.78,1702.32 1539.68,1698.22" allow="pedestrian delivery bicycle"/>
    <edge id="-24238018#1" from="5443498509" to="49732286" priority="11" type="highway.secondary" numLanes="2" speed="27.78" shape="2156.83,291.65 2154.53,202.10 2154.58,196.98 2154.43,179.04" disallow="tram rail_urban rail rail_electric rail_fast ship"/>
    <edge id="-24238018#5" from="cluster_3016605395_3016605397_3016605409" to="5443498509" priority="11" type="highway.secondary" numLanes="2" speed="27.78" shape="2162.32,496.51 2161.87,483.68 2161.03,449.44 2158.67,356.93 2158.07,334.58 2156.83,291.65" disallow="tram rail_urban rail rail_electric rail_fast ship"/>
    <edge id="-252140542#2" from="2629963166" to="cluster_2696812482_49846816" priority="10" type="highway.tertiary" numLanes="1" speed="22.22" shape="2362.20,1150.96 2362.52,1161.02 2363.76,1199.61 2364.03,1208.41" disallow="tram rail_urban rail rail_electric rail_fast ship"/>
    <edge id="-252140542#5" from="655247775" to="2629963166" priority="10" type="highway.tertiary" numLanes="1" speed="22.22" shape="2359.57,1032.62 2360.76,1091.28 2361.93,1139.63 2362.20,1150.96" disallow="tram rail_urban rail rail_electric rail_fast ship"/>
    <edge id="-26572919#2" from="3012535144" to="49767194" priority="10" type="highway.tertiary" numLanes="1" speed="22.22" shape="2612.25,618.10 2611.99,606.14 2610.37,513.01 2609.78,478.30 2609.70,469.82" disallow="tram rail_urban rail rail_electric rail_fast ship"/>
    <edge id="-26572919#5" from="3669554876" to="3012535144" priority="10" type="highway.tertiary" numLanes="1" speed="22.22" shape="2614.88,736.67 2614.57,725.92 2612.21,629.17 2612.25,618.10" disallow="tram rail_urban rail rail_electric rail_fast ship"/>
    <edge id="-26707840#1" from="49827624" to="4635571193" priority="11" type="highway.secondary" numLanes="3" speed="27.78" shape="995.93,1038.25 1006.67,1033.24 1128.38,975.82" disallow="tram rail_urban rail rail_electric rail_fast ship"/>
    <edge id="-26707922#0" from="49763531" to="3028062533" priority="1" type="highway.service" numLanes="1" speed="5.56" allow="pedestrian delivery bicycle"/>
    <edge id="-26707922#2" from="1920224643" to="49763531" priority="1" type="highway.service" numLanes="1" speed="5.56" shape="1567.24,769.57 1567.09,763.25 1565.68,687.42 1565.34,680.54 1564.76,672.89" allow="pedestrian delivery bicycle"/>
    <edge id="-26707922#4" from="1920224624" to="1920224643" priority="1" type="highway.service" numLanes="1" speed="5.56" shape="1568.63,833.06 1567.95,801.83 1567.24,769.57" allow="pedestrian delivery bicycle"/>
    <edge id="-26707922#6" from="8225844645" to="1920224624" priority="1" type="highway.service" numLanes="1" speed="5.56" shape="1570.76,928.20 1570.50,915.02 1570.41,910.09 1570.20,904.43 1568.79,840.60 1568.63,833.06" allow="pedestrian delivery bicycle"/>
    <edge id="-267677358#1" from="5446788679" to="2731045372" priority="1" type="highway.service" numLanes="1" speed="5.56" shape="1712.09,1587.18 1716.38,1587.06 1779.75,1558.05 1789.69,1553.53" allow="pedestrian delivery bicycle"/>
    <edge id="-267677358#3" from="2731044942" to="5446788679" priority="1" type="highway.service" numLanes="1" speed="5.56" shape="1627.21,1589.41 1642.22,1589.02 1712.09,1587.18" allow="pedestrian delivery bicycle"/>