<?xml version="1.0" encoding="UTF-8"?>

<!-- generated on 2021-10-16 20:39:36 by Eclipse SUMO netconvert Version 1.10.0
<configuration xmlns:xsi="http://www.w3.org/2001/XMLSchema-instance" xsi:noNamespaceSchemaLocation="http://sumo.dlr.de/xsd/netconvertConfiguration.xsd">

    <input>
        <sumo-net-file value="washingtondc.net.xml"/>
    </input>

    <output>
        <plain-output-prefix value="washingtondc"/>
    </output>

    <processing>
        <geometry.min-radius.fix.railways value="false"/>
        <geometry.max-grade.fix value="false"/>
        <offset.disable-normalization value="true"/>
        <lefthand value="false"/>
    </processing>

    <junctions>
        <no-internal-links value="true"/>
        <no-turnarounds value="true"/>
        <junctions.corner-detail value="5"/>
        <junctions.limit-turn-speed value="5.5"/>
        <rectangular-lane-cut value="false"/>
    </junctions>

    <pedestrian>
        <walkingareas value="false"/>
    </pedestrian>

    <report>
        <aggregate-warnings value="5"/>
    </report>

</configuration>
-->

<nodes version="1.9" xmlns:xsi="http://www.w3.org/2001/XMLSchema-instance" xsi:noNamespaceSchemaLocation="http://sumo.dlr.de/xsd/nodes_file.xsd">
    <location netOffset="-321951.51,-4306578.06" convBoundary="0.00,0.00,3278.98,2514.79" origBoundary="-77.070987,38.883945,-77.009194,38.942193" projParameter="+proj=utm +zone=18 +ellps=WGS84 +datum=WGS84 +units=m +no_defs"/>

    <node id="1110002067" x="1171.23" y="228.61" type="priority"/>
    <node id="1110002070" x="1174.32" y="343.33" type="priority"/>
    <node id="1240476053" x="1198.00" y="1302.68" type="priority"/>
    <node id="1240476059" x="1279.32" y="1344.55" type="priority"/>
    <node id="1243960638" x="474.47" y="1510.92" type="priority"/>
    <node id="1243960690" x="471.56" y="1388.64" type="priority"/>
    <node id="1243960707" x="857.09" y="1599.42" type="priority"/>
    <node id="1243960712" x="1009.32" y="1595.84" type="priority"/>
    <node id="130285133#0-AddedOnRampNode" x="1033.13" y="650.12" type="priority"/>
    <node id="130889705#2-AddedOffRampNode" x="1242.51" y="1703.94" type="priority"/>
    <node id="1350845800" x="1766.38" y="188.54" type="right_before_left"/>
    <node id="1350845805" x="3170.99" y="1559.42" type="priority"/>
    <node id="1362307943" x="731.91" y="1618.01" type="priority"/>
    <node id="1362307949" x="857.43" y="1615.15" type="priority"/>
    <node id="1362307956" x="1456.76" y="1594.10" type="priority"/>
    <node id="1363151544" x="1818.27" y="1692.01" type="priority"/>
    <node id="1363151545" x="1819.05" y="1683.61" type="priority"/>
    <node id="1363151578" x="1879.23" y="1660.14" type="priority"/>
    <node id="1363151612" x="1829.94" y="1650.31" type="priority"/>
    <node id="1364961087" x="3005.79" y="2514.79" type="dead_end"/>
    <node id="1364961102" x="2387.51" y="2257.10" type="dead_end"/>
    <node id="1364961105" x="2563.84" y="2330.15" type="priority"/>
    <node id="1379495867" x="1142.55" y="1706.80" type="priority"/>
    <node id="1379549935" x="319.18" y="1439.98" type="priority"/>
    <node id="1381204541" x="722.83" y="1236.60" type="traffic_light" tl="1381204541"/>
    <node id="1381210497" x="571.47" y="1239.78" type="traffic_light" tl="1381210497"/>
    <node id="1381212154" x="844.76" y="1110.02" type="traffic_light" tl="1381212154"/>
    <node id="1381216023" x="1188.82" y="947.19" type="traffic_light" tl="1381216023"/>
    <node id="1381307995" x="560.58" y="799.74" type="traffic_light" tl="1381307995"/>
    <node id="1381307996" x="563.14" y="907.26" type="priority"/>
    <node id="1381307998" x="721.35" y="1168.24" type="traffic_light" tl="1381307998"/>
    <node id="1381307999" x="1700.11" y="1216.04" type="traffic_light" tl="1381307999"/>
    <node id="1394275827" x="1828.24" y="1717.55" type="priority"/>
    <node id="1435427971" x="948.76" y="1061.06" type="priority"/>
    <node id="1439584651" x="2222.06" y="1149.34" type="priority"/>
    <node id="1440554163" x="1775.37" y="1692.70" type="priority"/>
    <node id="1443727088" x="380.82" y="1173.93" type="traffic_light" tl="1443727088"/>
    <node id="1740763163" x="646.41" y="1371.58" type="priority"/>
    <node id="1740764624" x="1279.99" y="1370.33" type="priority"/>
    <node id="1819618425" x="1206.21" y="679.93" type="right_before_left"/>
    <node id="1866789039" x="1628.32" y="1094.47" type="priority"/>
    <node id="1866789043" x="1611.84" y="990.03" type="priority"/>
    <node id="1920224624" x="1568.63" y="833.06" type="right_before_left"/>
    <node id="1920224632" x="1526.17" y="825.50" type="right_before_left"/>
    <node id="1920224643" x="1567.24" y="769.57" type="right_before_left"/>
    <node id="2163081028" x="3047.47" y="850.44" type="priority"/>
    <node id="2163081039" x="3126.75" y="847.99" type="priority"/>
    <node id="2163081041" x="3205.78" y="811.99" type="priority"/>
    <node id="2163081042" x="3183.53" y="812.35" type="right_before_left"/>
    <node id="2163081048" x="3204.77" y="760.84" type="priority"/>
    <node id="2163081049" x="3181.99" y="761.61" type="right_before_left"/>
    <node id="2163081051" x="3161.88" y="760.67" type="right_before_left"/>
    <node id="2202269022" x="2686.79" y="1848.91" type="priority"/>
    <node id="2314446381" x="2417.70" y="623.16" type="priority"/>
    <node id="2314446398" x="2308.05" y="672.12" type="priority"/>
    <node id="2314446399" x="2439.13" y="688.41" type="right_before_left"/>
    <node id="2314446400" x="2419.21" y="688.85" type="right_before_left"/>
    <node id="2314446401" x="2401.31" y="689.25" type="priority"/>
    <node id="2314446402" x="2479.90" y="688.07" type="priority"/>
    <node id="2314446422" x="2309.81" y="760.29" type="priority"/>
    <node id="2424721347" x="1370.60" y="634.49" type="priority"/>
    <node id="2440761314" x="2460.93" y="1677.70" type="priority"/>
    <node id="2440765418" x="2464.33" y="1855.50" type="priority"/>
    <node id="2455440109" x="1539.68" y="1698.22" type="priority"/>
    <node id="2455440114" x="1505.12" y="1790.89" type="priority"/>
    <node id="2460989459" x="1292.50" y="567.27" type="right_before_left"/>
    <node id="2460989463" x="1178.86" y="548.90" type="priority"/>
    <node id="2460989464" x="1368.01" y="903.27" type="right_before_left"/>
    <node id="2460989467" x="1177.11" y="470.65" type="priority"/>
    <node id="2462274977" x="1312.74" y="566.41" type="right_before_left"/>
    <node id="2462913140" x="1310.58" y="679.41" type="right_before_left"/>
    <node id="2504794158" x="1170.72" y="202.37" type="traffic_light" tl="2504794158"/>
    <node id="2504806041" x="1677.07" y="190.76" type="traffic_light" tl="2504806041"/>
    <node id="2514635762" x="1527.03" y="557.41" type="right_before_left"/>
    <node id="262295428" x="1462.30" y="1843.28" type="priority"/>
    <node id="262542282" x="259.98" y="805.10" type="dead_end"/>
    <node id="262543404" x="974.60" y="267.49" type="traffic_light" tl="262543404"/>
    <node id="2629963166" x="2362.20" y="1150.96" type="priority"/>
    <node id="2629963167" x="2271.56" y="1149.19" type="traffic_light" tl="joinedS_2" controlledInner="-321444898 -321444900 321444898 321444900"/>
    <node id="2681471738" x="1510.75" y="1231.62" type="priority"/>
    <node id="2731044942" x="1627.21" y="1589.41" type="priority"/>
    <node id="2731045372" x="1789.69" y="1553.53" type="priority"/>
    <node id="2778534382" x="496.93" y="652.79" type="priority"/>
    <node id="2778534384" x="499.51" y="801.26" type="priority"/>
    <node id="2790488400" x="3022.23" y="851.39" type="priority"/>
    <node id="2790488403" x="3149.05" y="847.54" type="priority"/>
    <node id="2790488427" x="2884.28" y="894.64" type="priority"/>
    <node id="2790488436" x="2839.41" y="901.73" type="priority"/>
    <node id="2790488465" x="2825.47" y="1022.06" type="priority"/>
    <node id="2790488495" x="2843.15" y="1079.93" type="priority"/>
    <node id="2790488497" x="2826.96" y="1080.29" type="right_before_left"/>
    <node id="2790488498" x="2763.08" y="1081.71" type="priority"/>
    <node id="2790566053" x="3199.16" y="528.24" type="priority"/>
    <node id="2790685743" x="2537.27" y="1197.14" type="priority"/>
    <node id="2790994829" x="3108.17" y="157.65" type="priority"/>
    <node id="2791130921" x="3180.90" y="606.84" type="priority"/>
    <node id="2791594532" x="2350.75" y="240.72" type="priority"/>
    <node id="2791594538" x="2351.87" y="313.35" type="priority"/>
    <node id="2825547422" x="2552.32" y="348.53" type="traffic_light" tl="joinedS_3" controlledInner="397324964#0"/>
    <node id="2899430534" x="3210.30" y="1063.40" type="dead_end"/>
    <node id="2970474934" x="2834.10" y="162.88" type="priority"/>
    <node id="2970474949" x="2903.45" y="160.83" type="priority"/>
    <node id="2995259847" x="2359.73" y="174.28" type="priority"/>
    <node id="2999157096" x="1186.29" y="847.94" type="traffic_light" tl="2999157096"/>
    <node id="2999157104" x="1166.39" y="697.94" type="priority"/>
    <node id="2999157115" x="1183.81" y="737.25" type="priority"/>
    <node id="3001019033" x="2564.76" y="618.90" type="priority"/>
    <node id="3001409611" x="362.52" y="1497.15" type="priority"/>
    <node id="3001409615" x="682.72" y="1717.67" type="priority"/>
    <node id="3001569202" x="2873.57" y="422.19" type="traffic_light" tl="3001569202"/>
    <node id="3001569209" x="3042.92" y="461.34" type="priority"/>
    <node id="3001569219" x="3020.58" y="462.00" type="priority"/>
    <node id="3007114616" x="304.59" y="13.05" type="dead_end"/>
    <node id="3007762954" x="244.73" y="223.54" type="dead_end"/>
    <node id="3007959481" x="270.18" y="379.05" type="priority"/>
    <node id="3007959506" x="359.29" y="369.66" type="priority"/>
    <node id="3007959741" x="269.72" y="584.49" type="priority"/>
    <node id="3010500914" x="2341.12" y="416.74" type="priority"/>
    <node id="3011273418" x="3196.50" y="103.75" type="dead_end"/>
    <node id="3011273427" x="3269.53" y="95.63" type="dead_end"/>
    <node id="3011565329" x="2870.59" y="331.02" type="traffic_light" tl="3011565329"/>
    <node id="3012429028" x="2700.41" y="467.50" type="traffic_light" tl="3012429028"/>
    <node id="3012535014" x="2697.98" y="368.01" type="traffic_light" tl="3012535014"/>
    <node id="3012535144" x="2612.25" y="618.10" type="traffic_light" tl="3012535144"/>
    <node id="3012784288" x="2725.68" y="1672.10" type="traffic_light" tl="3012784288"/>
    <node id="3012784293" x="2721.52" y="1507.53" type="traffic_light" tl="3012784293"/>
    <node id="3012784294" x="2683.78" y="1673.56" type="priority"/>
    <node id="3012829798" x="2282.93" y="1681.78" type="traffic_light" tl="3012829798"/>
    <node id="3013359741" x="2340.32" y="389.91" type="priority"/>
    <node id="3013407820" x="2262.37" y="761.27" type="traffic_light" tl="3013407820"/>
    <node id="3013488879" x="2269.80" y="1078.53" type="traffic_light" tl="3013488879"/>
    <node id="3013488880" x="2287.42" y="1077.99" type="priority"/>
    <node id="3013488882" x="2251.89" y="1080.96" type="priority"/>
    <node id="3016605388" x="2166.82" y="628.08" type="traffic_light" tl="3016605388"/>
    <node id="3016605413" x="2147.72" y="501.79" type="priority"/>
    <node id="3016708830" x="2051.19" y="1352.59" type="traffic_light" tl="joinedS_4" controlledInner="-347003226 347003226"/>
    <node id="3023648807" x="1212.99" y="771.25" type="priority"/>
    <node id="3023648808" x="1184.45" y="771.22" type="priority"/>
    <node id="3025813904" x="2122.50" y="1566.63" type="priority"/>
    <node id="3025813906" x="2105.82" y="1510.54" type="priority"/>
    <node id="3027616033" x="1874.39" y="572.89" type="priority"/>
    <node id="3027616043" x="1976.38" y="1060.47" type="traffic_light" tl="joinedS_5" controlledInner="508158268 508158271 508158273"/>
    <node id="3027616047" x="1911.18" y="1086.30" type="priority"/>
    <node id="3027616061" x="1983.85" y="1052.18" type="traffic_light" tl="joinedS_5" controlledInner="508158268 508158271 508158273"/>
    <node id="3027663729" x="1849.23" y="1357.27" type="traffic_light" tl="joinedS_6" controlledInner="-421077027 421077027"/>
    <node id="3027665439" x="1193.51" y="1372.80" type="traffic_light" tl="joinedS_7" controlledInner="126303364 323742931"/>
    <node id="3027665453" x="1193.25" y="1345.24" type="traffic_light" tl="joinedS_7" controlledInner="126303364 323742931"/>
    <node id="3027817910" x="1864.89" y="441.83" type="priority"/>
    <node id="3027817931" x="1862.15" y="317.65" type="priority"/>
    <node id="3027820435" x="1791.37" y="305.78" type="priority"/>
    <node id="3027832454" x="1833.20" y="635.01" type="traffic_light" tl="3027832454"/>
    <node id="3028062515" x="1583.82" y="670.46" type="right_before_left"/>
    <node id="3028062533" x="1563.74" y="662.36" type="right_before_left"/>
    <node id="3282259542" x="315.71" y="1339.30" type="dead_end"/>
    <node id="3301714558" x="2002.23" y="570.74" type="priority"/>
    <node id="3378069639" x="1870.28" y="1754.51" type="dead_end"/>
    <node id="3378110162" x="2717.09" y="1278.36" type="traffic_light" tl="3378110162"/>
    <node id="3378222896" x="3204.34" y="738.48" type="priority"/>
    <node id="3378222897" x="2530.13" y="746.35" type="traffic_light" tl="3378222897"/>
    <node id="3378222899" x="2705.94" y="740.53" type="traffic_light" tl="3378222899"/>
    <node id="3378222911" x="3209.98" y="1045.73" type="dead_end"/>
    <node id="3378222913" x="3108.12" y="1101.49" type="priority"/>
    <node id="3378222917" x="2916.98" y="1191.92" type="priority"/>
    <node id="3378616474" x="2965.55" y="744.08" type="traffic_light" tl="GS_3378616474"/>
    <node id="3382185670" x="474.03" y="652.89" type="priority"/>
    <node id="3382186603" x="474.14" y="674.22" type="priority"/>
    <node id="3382186605" x="377.75" y="704.43" type="priority"/>
    <node id="3382186608" x="400.90" y="720.51" type="right_before_left"/>
    <node id="3453939624" x="1038.88" y="572.01" type="priority"/>
    <node id="3453939625" x="1096.04" y="570.62" type="priority"/>
    <node id="3461396741" x="1902.93" y="1787.34" type="dead_end"/>
    <node id="3472488167" x="2365.06" y="24.52" type="priority"/>
    <node id="3472488190" x="2433.12" y="172.18" type="priority"/>
    <node id="3519479351" x="2794.34" y="1140.14" type="priority"/>
    <node id="3519479352" x="2887.75" y="1058.73" type="priority"/>
    <node id="3519479354" x="2932.51" y="1096.09" type="priority"/>
    <node id="3519479356" x="2932.65" y="1019.21" type="priority"/>
    <node id="3519479357" x="2929.46" y="881.57" type="priority"/>
    <node id="3519479358" x="2972.79" y="1064.58" type="priority"/>
    <node id="3547076002" x="1722.47" y="1414.30" type="priority"/>
    <node id="3547111217" x="2184.38" y="1403.35" type="priority"/>
    <node id="3595703855" x="2021.71" y="182.38" type="priority"/>
    <node id="3595703864" x="1958.07" y="183.99" type="priority"/>
    <node id="3669554853" x="2975.15" y="1164.53" type="traffic_light" tl="joinedS_8" controlledInner="-520468342 -590581593#5 520468342 590581593#4"/>
    <node id="3669554855" x="2891.24" y="1204.23" type="traffic_light" tl="3669554855"/>
    <node id="3669554857" x="2716.14" y="1141.69" type="traffic_light" tl="3669554857"/>
    <node id="3669554860" x="2625.95" y="1143.97" type="priority"/>
    <node id="3669554862" x="2623.09" y="1027.02" type="priority"/>
    <node id="3669554865" x="2535.13" y="1029.21" type="traffic_light" tl="3669554865"/>
    <node id="3669554866" x="2535.02" y="944.05" type="priority"/>
    <node id="3669554868" x="2533.64" y="870.23" type="traffic_light" tl="3669554868"/>
    <node id="3669554871" x="2355.33" y="866.20" type="traffic_light" tl="3669554871"/>
    <node id="3669554873" x="2440.01" y="756.80" type="priority"/>
    <node id="3669554874" x="2352.98" y="758.91" type="traffic_light" tl="3669554874"/>
    <node id="3669554876" x="2614.88" y="736.67" type="priority"/>
    <node id="3669554878" x="2881.07" y="746.38" type="traffic_light" tl="3669554878"/>
    <node id="3669554883" x="3154.12" y="739.34" type="priority"/>
    <node id="3670756345" x="2350.61" y="624.52" type="traffic_light" tl="3670756345"/>
    <node id="3670756362" x="2961.34" y="544.32" type="priority"/>
    <node id="3670756365" x="2962.81" y="610.29" type="traffic_light" tl="3670756365"/>
    <node id="3705029881" x="793.43" y="1534.34" type="priority"/>
    <node id="3705029882" x="795.06" y="1616.02" type="right_before_left"/>
    <node id="3705029883" x="795.49" y="1662.40" type="priority"/>
    <node id="3746743429" x="3098.41" y="1450.57" type="priority"/>
    <node id="3789024350" x="1232.43" y="1780.93" type="priority"/>
    <node id="3789024356" x="1243.32" y="1703.91" type="priority"/>
    <node id="3903304477" x="3027.50" y="1225.52" type="right_before_left"/>
    <node id="3903304479" x="2995.14" y="1225.70" type="right_before_left"/>
    <node id="3903304480" x="2976.31" y="1226.39" type="priority"/>
    <node id="3921044638" x="2148.42" y="135.42" type="priority"/>
    <node id="3955782118" x="1953.37" y="1477.18" type="priority"/>
    <node id="3955782121" x="1910.29" y="1546.74" type="right_before_left"/>
    <node id="3955782122" x="1954.68" y="1545.87" type="right_before_left"/>
    <node id="3955782126" x="1913.75" y="1594.89" type="priority"/>
    <node id="3995242874" x="2289.30" y="1966.57" type="priority"/>
    <node id="3998724798" x="1631.07" y="1752.46" type="priority"/>
    <node id="4000848163" x="1167.72" y="74.28" type="priority"/>
    <node id="4001061700" x="1577.91" y="193.18" type="right_before_left"/>
    <node id="4001144763" x="1833.80" y="663.30" type="priority"/>
    <node id="4001144764" x="1835.30" y="727.53" type="priority"/>
    <node id="4001144765" x="1837.70" y="822.78" type="priority"/>
    <node id="4001147641" x="2041.63" y="919.82" type="priority"/>
    <node id="4001167198" x="2313.31" y="624.77" type="priority"/>
    <node id="4001167199" x="2120.76" y="629.36" type="priority"/>
    <node id="4001177905" x="2117.09" y="513.52" type="priority"/>
    <node id="4001177907" x="1739.11" y="574.01" type="priority"/>
    <node id="4001199047" x="2517.15" y="241.25" type="priority"/>
    <node id="4001201376" x="1179.47" y="569.08" type="traffic_light" tl="4001201376"/>
    <node id="4001248777" x="2692.75" y="616.18" type="priority"/>
    <node id="4001248778" x="2715.43" y="615.71" type="priority"/>
    <node id="4001248779" x="2917.69" y="610.53" type="priority"/>
    <node id="4001261917" x="2815.78" y="747.64" type="priority"/>
    <node id="4001261918" x="2757.65" y="748.62" type="priority"/>
    <node id="4001261919" x="2578.83" y="877.73" type="priority"/>
    <node id="4001261920" x="2659.78" y="874.27" type="priority"/>
    <node id="4001470337" x="834.18" y="641.20" type="traffic_light" tl="4001470337"/>
    <node id="4078490831" x="561.85" y="854.06" type="priority"/>
    <node id="4303519741" x="1819.03" y="0.96" type="priority"/>
    <node id="4325552562" x="2050.64" y="1326.69" type="priority"/>
    <node id="4325552563" x="1703.59" y="1335.18" type="priority"/>
    <node id="4325552564" x="2184.60" y="1324.28" type="priority"/>
    <node id="4325552565" x="1620.98" y="1337.59" type="priority"/>
    <node id="4325552566" x="2183.18" y="1349.46" type="priority"/>
    <node id="436136929#2-AddedOnRampNode" x="1284.26" y="1370.30" type="priority"/>
    <node id="4366096286" x="1703.37" y="1360.61" type="traffic_light" tl="joinedS_9" controlledInner="-298832240 298832240"/>
    <node id="4436158132" x="1205.04" y="1493.76" type="priority"/>
    <node id="4436161150" x="1206.36" y="1542.62" type="right_before_left"/>
    <node id="4436161151" x="1207.48" y="1539.06" type="priority"/>
    <node id="4602378982" x="2785.91" y="1638.78" type="priority"/>
    <node id="4606643101" x="1933.39" y="1546.51" type="right_before_left"/>
    <node id="4606643102" x="1970.74" y="1626.51" type="priority"/>
    <node id="4629699763" x="2049.85" y="1290.30" type="priority"/>
    <node id="4629699764" x="2047.06" y="1161.15" type="priority"/>
    <node id="4629699765" x="2046.47" y="1133.76" type="priority"/>
    <node id="4629699766" x="1847.76" y="1288.14" type="priority"/>
    <node id="4629699767" x="1845.36" y="1168.71" type="priority"/>
    <node id="4629699768" x="1630.81" y="1735.26" type="priority"/>
    <node id="4629699769" x="1628.92" y="1656.53" type="priority"/>
    <node id="4629699773" x="1619.96" y="1302.01" type="priority"/>
    <node id="4629699774" x="1618.61" y="1266.66" type="priority"/>
    <node id="4629703804" x="320.39" y="1682.18" type="dead_end"/>
    <node id="4629703805" x="464.40" y="1679.26" type="priority"/>
    <node id="4629703806" x="1181.39" y="637.09" type="priority"/>
    <node id="4629734411" x="787.97" y="1136.77" type="priority"/>
    <node id="4629734412" x="917.05" y="1075.89" type="priority"/>
    <node id="4629799198" x="3070.58" y="103.25" type="priority"/>
    <node id="4630052962" x="2943.94" y="1319.51" type="priority"/>
    <node id="4630052963" x="2931.09" y="1319.79" type="priority"/>
    <node id="4630052964" x="3022.39" y="1317.73" type="priority"/>
    <node id="4630052965" x="3174.78" y="1314.21" type="priority"/>
    <node id="4630052967" x="1578.34" y="1485.72" type="priority"/>
    <node id="4630052968" x="1711.10" y="1483.03" type="priority"/>
    <node id="4630052969" x="1805.97" y="1480.59" type="priority"/>
    <node id="4630052970" x="2005.14" y="1476.22" type="priority"/>
    <node id="4630052971" x="2145.56" y="1473.11" type="priority"/>
    <node id="4635571193" x="1128.38" y="975.82" type="priority"/>
    <node id="4635571198" x="307.23" y="656.26" type="dead_end"/>
    <node id="4635639616" x="1101.15" y="1496.46" type="priority"/>
    <node id="4635639617" x="1237.81" y="1492.94" type="priority"/>
    <node id="4635639618" x="1419.84" y="1489.03" type="priority"/>
    <node id="4635704121" x="1006.67" y="1460.99" type="priority"/>
    <node id="4635704125" x="1195.10" y="1184.37" type="priority"/>
    <node id="4635704126" x="1193.98" y="1146.47" type="priority"/>
    <node id="4697534333" x="1539.66" y="1339.70" type="priority"/>
    <node id="4697534334" x="1737.62" y="1347.27" type="priority"/>
    <node id="4697534335" x="1771.35" y="1346.89" type="priority"/>
    <node id="4712459791" x="3172.88" y="1386.17" type="right_before_left"/>
    <node id="4712459794" x="3174.73" y="1448.70" type="priority"/>
    <node id="4712459796" x="3174.26" y="1432.28" type="right_before_left"/>
    <node id="4712459799" x="3110.01" y="1315.71" type="priority"/>
    <node id="4712459837" x="2949.63" y="1421.82" type="priority"/>
    <node id="4712459841" x="2948.66" y="1350.90" type="right_before_left"/>
    <node id="4712459844" x="2935.65" y="1419.39" type="right_before_left"/>
    <node id="4712459845" x="2934.12" y="1351.41" type="priority"/>
    <node id="4712459847" x="2923.26" y="1351.86" type="right_before_left"/>
    <node id="474436870" x="1783.30" y="1540.80" type="priority"/>
    <node id="4772585558" x="2280.53" y="1571.61" type="priority"/>
    <node id="4772585560" x="2332.81" y="1591.44" type="priority"/>
    <node id="4772968941" x="2984.18" y="1585.98" type="priority"/>
    <node id="4772968945" x="3223.65" y="1614.10" type="priority"/>
    <node id="4772976711" x="2985.17" y="1630.58" type="priority"/>
    <node id="4772976714" x="2983.14" y="1538.86" type="priority"/>
    <node id="4805642675" x="2383.39" y="1443.94" type="priority"/>
    <node id="4805651099" x="2419.95" y="1426.60" type="priority"/>
    <node id="4805651224" x="2451.49" y="1412.12" type="priority"/>
    <node id="4805651418" x="2432.75" y="1420.82" type="priority"/>
    <node id="4805660870" x="2963.62" y="1666.66" type="priority"/>
    <node id="4805662782" x="2768.66" y="1618.77" type="priority"/>
    <node id="4805670655" x="2808.87" y="1670.27" type="priority"/>
    <node id="4805678544" x="2413.55" y="1429.54" type="priority"/>
    <node id="4805827279" x="2064.06" y="1937.34" type="priority"/>
    <node id="4807112904" x="2895.93" y="1402.83" type="priority"/>
    <node id="4807112906" x="2859.18" y="1399.32" type="priority"/>
    <node id="4807131664" x="2191.52" y="1718.61" type="priority"/>
    <node id="4807131665" x="2169.81" y="1718.94" type="priority"/>
    <node id="4807158921" x="2333.54" y="1680.88" type="priority"/>
    <node id="4807158922" x="2333.00" y="1634.35" type="priority"/>
    <node id="4807161213" x="2847.55" y="1323.30" type="priority"/>
    <node id="4807161215" x="2848.06" y="1341.65" type="right_before_left"/>
    <node id="4807161218" x="2865.85" y="1322.93" type="priority"/>
    <node id="4807170904" x="1742.67" y="1693.34" type="priority"/>
    <node id="4807170905" x="1742.07" y="1669.80" type="priority"/>
    <node id="4807547607" x="2805.60" y="1505.20" type="priority"/>
    <node id="4807547608" x="2806.86" y="1591.08" type="priority"/>
    <node id="4807577514" x="2396.61" y="1515.38" type="priority"/>
    <node id="4807577515" x="2396.80" y="1562.88" type="priority"/>
    <node id="4834363439" x="2786.76" y="1670.61" type="priority"/>
    <node id="4867673708" x="3094.26" y="1663.71" type="priority"/>
    <node id="4867673709" x="3092.77" y="1599.16" type="right_before_left"/>
    <node id="4885596553" x="861.18" y="1761.65" type="priority"/>
    <node id="4887815633" x="2801.29" y="1740.21" type="priority"/>
    <node id="4887827747" x="2236.23" y="1736.62" type="priority"/>
    <node id="4944710027" x="797.72" y="1839.88" type="priority"/>
    <node id="4944710028" x="794.03" y="1715.16" type="priority"/>
    <node id="4944710029" x="685.14" y="1821.74" type="priority"/>
    <node id="4951991017" x="1057.65" y="365.25" type="priority"/>
    <node id="4951991923" x="1004.22" y="320.61" type="priority"/>
    <node id="4954909667" x="2839.90" y="1504.33" type="priority"/>
    <node id="4954909668" x="2845.33" y="1629.03" type="priority"/>
    <node id="4957604817" x="2466.30" y="301.78" type="right_before_left"/>
    <node id="4957604820" x="2396.37" y="303.25" type="right_before_left"/>
    <node id="49716126" x="1304.85" y="671.31" type="right_before_left"/>
    <node id="49717477" x="574.06" y="1358.62" type="traffic_light" tl="joinedS_11" controlledInner="421075190#0 535462248"/>
    <node id="49722994" x="706.49" y="583.04" type="traffic_light" tl="49722994"/>
    <node id="49725576" x="3209.18" y="1012.85" type="priority"/>
    <node id="49729677" x="330.57" y="1401.56" type="dead_end"/>
    <node id="49729679" x="1115.46" y="1731.54" type="priority"/>
    <node id="49729874" x="2170.96" y="0.00" type="dead_end"/>
    <node id="49729890" x="2196.12" y="178.05" type="priority"/>
    <node id="49730319" x="391.55" y="680.48" type="priority"/>
    <node id="49732286" x="2154.43" y="179.04" type="traffic_light" tl="49732286"/>
    <node id="49734077" x="3278.98" y="319.92" type="priority"/>
    <node id="49734104" x="2279.40" y="1517.52" type="traffic_light" tl="joinedS_12" controlledInner="-130788190 -130788195 130788190 130788195"/>
    <node id="49734107" x="2227.27" y="1517.50" type="priority"/>
    <node id="49734111" x="1835.94" y="1724.18" type="priority"/>
    <node id="49734130" x="1633.57" y="1810.81" type="dead_end"/>
    <node id="49735316" x="3222.70" y="1584.33" type="dead_end"/>
    <node id="49738093" x="306.76" y="1330.92" type="dead_end"/>
    <node id="49741647" x="546.60" y="216.62" type="traffic_light" tl="49741647"/>
    <node id="49741652" x="549.66" y="373.04" type="traffic_light" tl="49741652"/>
    <node id="49741673" x="556.41" y="651.16" type="traffic_light" tl="49741673"/>
    <node id="49741695" x="566.53" y="1045.94" type="traffic_light" tl="49741695"/>
    <node id="49741703" x="569.54" y="1169.85" type="priority"/>
    <node id="49741709" x="574.45" y="1373.21" type="traffic_light" tl="joinedS_11" controlledInner="421075190#0 535462248"/>
    <node id="49741710" x="577.58" y="1508.58" type="traffic_light" tl="49741710"/>
    <node id="49741715" x="582.92" y="1716.67" type="traffic_light" tl="49741715"/>
    <node id="49741717" x="584.53" y="1783.40" type="traffic_light" tl="49741717"/>
    <node id="49745628" x="1836.20" y="771.04" type="traffic_light" tl="49745628"/>
    <node id="49745629" x="1838.55" y="877.97" type="traffic_light" tl="49745629"/>
    <node id="49745632" x="1843.05" y="1088.84" type="traffic_light" tl="49745632"/>
    <node id="49745636" x="1846.32" y="1212.26" type="traffic_light" tl="49745636"/>
    <node id="49745640" x="1849.15" y="1345.04" type="traffic_light" tl="joinedS_6" controlledInner="-421077027 421077027"/>
    <node id="49745644" x="1851.82" y="1479.05" type="traffic_light" tl="49745644"/>
    <node id="49748172" x="3197.00" y="458.05" type="dead_end"/>
    <node id="49748177" x="3201.30" y="605.13" type="priority"/>
    <node id="49748184" x="3206.41" y="847.01" type="priority"/>
    <node id="49748212" x="3213.43" y="1181.51" type="priority"/>
    <node id="49748223" x="3217.26" y="1313.24" type="priority"/>
    <node id="49748231" x="3219.40" y="1447.62" type="priority"/>
    <node id="49748241" x="3225.13" y="1661.13" type="dead_end"/>
    <node id="49748539" x="1839.17" y="1725.79" type="traffic_light" tl="joinedS_0"/>
    <node id="49748681" x="3218.58" y="154.47" type="priority"/>
    <node id="49748716" x="2868.11" y="161.77" type="traffic_light" tl="49748716"/>
    <node id="49748720" x="2693.91" y="165.94" type="traffic_light" tl="49748720"/>
    <node id="49748725" x="2516.11" y="170.11" type="traffic_light" tl="49748725"/>
    <node id="49748771" x="1207.00" y="201.71" type="right_before_left"/>
    <node id="49748775" x="1064.30" y="205.01" type="right_before_left"/>