<?xml version="1.0"?>

<routes> <!-- The opening tag -->

   <!-- Vehicle types -->
   <vType id="passenger" length="5.0" width="2.0" maxSpeed="70.0" accel="2.6" decel="4.5" sigma="0.5"/>

   <!-- Routes + associated vehicles & flows -->
   <route id="trip-0" color="Magenta" edges="-6056371#1 -397318415#1 -397318416#2 397318411#0 397318410#0 397318414#0 397318412#0 397327934#0 397327932#0 397327939#0 397327938 397327933 397327935#0 397327936#0 397327937#0 -6059107#6 -6059107#3 131052386#6 -296365924#2 296365924#2"/>
   <vehicle id="vehicle-0" type="passenger" color="Yellow" depart="0.0" route="trip-0"/>

   <route id="trip-1" color="Magenta" edges="468450580#0 -509645504#0 -397321705#1 -589551092#1 -589551092#0 146537587#0 397324962 29961168#0 131052386#0 297294791#0 297294792#0 589905511#0 120478695#0 120478695#3 120478695#4 468441885#0 468441885#2 202992519#0 589551087#0 589551087#2 47916246#0 47916246#1 297296749#1 -466352083#1 -50511365#1 -50511365#0 50511364#0"/>
   <vehicle id="vehicle-1" type="passenger" color="Yellow" depart="0.01" route="trip-1"/>

   <route id="trip-2" color="Magenta" edges="468469931#0 468469935#0 468469935#2 468469943#0 468469939#0 468469946#0 200019461#0 435424520#0 -420781368 -920893151 -6057581#6 -6057581#5 -6057581#4 -6057581#3 -6057581#2 -6057581#1 954271698#0 988196201#0 6057595#0 -202992519#2 -468441158#1"/>
   <vehicle id="vehicle-2" type="passenger" color="Yellow" depart="0.02" route="trip-2"/>

   <route id="trip-3" color="Magenta" edges="-296355738#3 296355738#2 -589551087#2 -589551087#1 -202992519#2 -468441158#1 -468441885#1 -468441884 -120478695#3 -120478695#2 -589905511#3 -297294792#2 -297294791#2 -513235538#2"/>
   <vehicle id="vehicle-3" type="passenger" color="Yellow" depart="0.03" route="trip-3"/>

   <route id="trip-4" color="Magenta" edges="-469165487 -469165486#1 126303366#0 126303365 6058797 520537749-AddedOnRampEdge 520537749 466359342#0 466359342#3 469165485#0 442066186#0"/>
   <vehicle id="vehicle-4" type="passenger" color="Yellow" depart="0.04" route="trip-4"/>

   <route id="trip-5" color="Magenta" edges="-297368625#2 297368625#0 297368625#3 397321698#0 397321701#0 130802376#0 589551086#0 29961175#0 155011691 421037430#0 130788227#0 -130788227#2"/>
   <vehicle id="vehicle-5" type="passenger" color="Yellow" depart="0.05" route="trip-5"/>

   <route id="trip-6" color="Magenta" edges="-6059056#4 -6059056#2 -6059056#1 -423602319#1 -423602679 6053702#0 6053702#2 6053702#3 509326344#0 6054254#0 50431292#0 6057417#0 6056366#0 6056366#3 130889756#0 130889756#2 130889756#6 130889757#0 698748857#0 589539536#0 589539536#2 589539536#3 589539536#4 590581668#0 590581668#2 589539534#0 126303354#0 126303354#2 126303354#5 126303354#7 345709542#0 298848145#0 130285121#0 508158271 508158272#0 130889749#0 130889749#2 397316524#0 -397316522 -298814317#2 468433794 397319278#0 298814316 454817812 146537575#0 397319276 297456132#0 45838768#0 589551092#0"/>
   <vehicle id="vehicle-6" type="passenger" color="Yellow" depart="0.06" route="trip-6"/>

   <route id="trip-7" color="Magenta" edges="468450553#0 -468450553#1 468441885#0 468441885#2 202992519#0 589551087#0 589551087#2 47916246#0 47916246#1 297296749#1 -466352083#1 -50511365#1 -50511365#0 50511364#0"/>
   <vehicle id="vehicle-7" type="passenger" color="Yellow" depart="0.07" route="trip-7"/>

   <route id="trip-8" color="Magenta" edges="130908289#0 130908289#3 50797098#3 50797098#5 130889756#6 130889757#0 698748857#0 589539536#0 589539536#2 589539536#3 589539536#4 590581668#0 590581668#2 589539534#0 126303354#0 126303354#2 126303354#5 126303354#7 345709542#0 298848145#0 298814315#0 508158270#0 421268132#0 439875857#0 590598870#0 509326776#0 650605162 767683115#0 29961183#1"/>
   <vehicle id="vehicle-8" type="passenger" color="Yellow" depart="0.08" route="trip-8"/>

   <route id="trip-9" color="Magenta" edges="469159256#0 469159256#3 469159259 469159258#0 469159258#1 469159258#2 468469919#0 468469927#0 468469927#2 460536376#0 468469923#0 468469931#0 468469935#0 468469935#2 468469943#0 535546520#0 -535546520#1"/>
   <vehicle id="vehicle-9" type="passenger" color="Yellow" depart="0.09" route="trip-9"/>

   <route id="trip-10" color="Magenta" edges="423607087#0 -423607087#0 589551072#0 6063274#0 130889755#0 130889755#3 130889756#0 130889756#2 130889756#6 130889757#0 698748857#0 589539536#0 589539536#2 589539536#3 589539536#4 590581668#0 590581668#2 589539534#0 126303354#0 126303354#2 126303354#5 126303354#7 345709542#0 298848145#0 298814315#0 508158270#0 421268132#0 439875857#0 590598870#0 321444898 321444899#0 -321444899#2"/>
   <vehicle id="vehicle-10" type="passenger" color="Yellow" depart="0.1" route="trip-10"/>

   <route id="trip-11" color="Magenta" edges="131052386#6 -296365924#2 296365924#2 6055387#0 6055387#2 297294792#0 589905511#0 397329575#0 397329570 397329572#0 297380214#0 297380214#3 -297380210#3 -297380210#1 -589539518#3 -589539518#1 -589533563#2 -347003330#6 -347003330#3 347003328#0"/>
   <vehicle id="vehicle-11" type="passenger" color="Yellow" depart="0.11" route="trip-11"/>

   <route id="trip-12" color="Magenta" edges="466352083#0 -297296749#3 297296770#0 6056532#0 45838762#1 6062201#0 -130788155#1 -434444693#2 -509646034#1 -352412073 -47920785#1 -352412039#1 -298815729#1 -476103813#1 -352412083 -126303356#1 -298832261#2 -298832254#2 -476103809#1 354202945#0 352411913#0 130908283#0 -130908283#0 -438964977 438964976#0 520537749-AddedOnRampEdge 520537749 353283535#1"/>
   <vehicle id="vehicle-12" type="passenger" color="Yellow" depart="0.12" route="trip-12"/>

   <route id="trip-13" color="Magenta" edges="297368625#0 -397327938 -397327939#1 26572919#3 297380214#3 -297380210#3 -297380210#1 -589539518#3 -589539518#1 -589533563#2 -347003330#6 -347003330#3 347003328#0 -397303092#2 -397303090#1 -175873836#2 130802372#0 130802372#3 589551073#0 345633934#0 589539535#0 589533502#0 468434122#0 468434122#2 695842775 469157092 589533511#0 520537739 -352412110 -509325914 -476103805 476103805"/>
   <vehicle id="vehicle-13" type="passenger" color="Yellow" depart="0.13" route="trip-13"/>

   <route id="trip-14" color="Magenta" edges="535780677#2 6055389#0 397316203#0 70948803#0 397316176#0 397316171 397316180#0 397316186#0 397316195#0 397316204#0 347003327#0 397327124#0 468433796 397327121#0 347003229#0 347003229#2 589551073#0 345633934#0 589539535#0 589533502#0 468434122#0 468434122#2 695842775 469157092 468434120#0 345633935#0 345633935#2 345633935#4 -438958617#8 -438958617#6"/>
   <vehicle id="vehicle-14" type="passenger" color="Yellow" depart="0.14" route="trip-14"/>

</routes> <!-- The closing tag -->
