<?xml version="1.0" encoding="UTF-8"?>

<!-- generated on 2021-10-16 20:39:35 by Eclipse SUMO netconvert Version 1.10.0
<configuration xmlns:xsi="http://www.w3.org/2001/XMLSchema-instance" xsi:noNamespaceSchemaLocation="http://sumo.dlr.de/xsd/netconvertConfiguration.xsd">

    <input>
        <type-files value="C:\Users\Voldem0rt\Desktop\washingtondc\Sumo\data\typemap\osmNetconvert.typ.xml"/>
        <osm-files value="washingtondc.osm.xml"/>
    </input>

    <output>
        <output-file value="washingtondc.net.xml"/>
    </output>

    <projection>
        <proj.utm value="true"/>
    </projection>

    <processing>
        <geometry.remove value="true"/>
        <roundabouts.guess value="true"/>
    </processing>

    <tls_building>
        <tls.discard-simple value="true"/>
        <tls.join value="true"/>
        <tls.guess-signals value="true"/>
    </tls_building>

    <ramp_guessing>
        <ramps.guess value="true"/>
    </ramp_guessing>

    <edge_removal>
        <remove-edges.by-vclass value="rail,rail_electric,bicycle,pedestrian"/>
        <remove-edges.by-type value="rail,rail_urban,rail_electric,railway.tram,railway.subway"/>
    </edge_removal>

    <junctions>
        <no-internal-links value="true"/>
        <junctions.join value="true"/>
    </junctions>

    <report>
        <aggregate-warnings value="5"/>
    </report>

</configuration>
-->

<net version="1.9" junctionCornerDetail="5" limitTurnSpeed="5.50" xmlns:xsi="http://www.w3.org/2001/XMLSchema-instance" xsi:noNamespaceSchemaLocation="http://sumo.dlr.de/xsd/net_file.xsd">

    <location netOffset="-321951.51,-4306578.06" convBoundary="0.00,0.00,3278.98,2514.79" origBoundary="-77.070987,38.883945,-77.009194,38.942193" projParameter="+proj=utm +zone=18 +ellps=WGS84 +datum=WGS84 +units=m +no_defs"/>

    <type id="highway.bridleway" priority="1" numLanes="1" speed="2.78" allow="pedestrian" oneway="1" width="2.00"/>
    <type id="highway.bus_guideway" priority="1" numLanes="1" speed="27.78" allow="bus" oneway="1"/>
    <type id="highway.cycleway" priority="1" numLanes="1" speed="8.33" allow="bicycle" oneway="0" width="1.00"/>
    <type id="highway.footway" priority="1" numLanes="1" speed="2.78" allow="pedestrian" oneway="1" width="2.00"/>
    <type id="highway.ford" priority="1" numLanes="1" speed="2.78" allow="army" oneway="0"/>
    <type id="highway.living_street" priority="2" numLanes="1" speed="2.78" disallow="tram rail_urban rail rail_electric rail_fast ship" oneway="0"/>
    <type id="highway.motorway" priority="14" numLanes="2" speed="39.44" allow="private emergency authority army vip passenger hov taxi bus coach delivery truck trailer motorcycle evehicle custom1 custom2" oneway="1"/>
    <type id="highway.motorway_link" priority="9" numLanes="1" speed="22.22" allow="private emergency authority army vip passenger hov taxi bus coach delivery truck trailer motorcycle evehicle custom1 custom2" oneway="1"/>
    <type id="highway.path" priority="1" numLanes="1" speed="2.78" allow="pedestrian bicycle" oneway="0" width="2.00"/>
    <type id="highway.pedestrian" priority="1" numLanes="1" speed="2.78" allow="pedestrian" oneway="1" width="2.00"/>
    <type id="highway.primary" priority="12" numLanes="2" speed="27.78" disallow="tram rail_urban rail rail_electric rail_fast ship" oneway="0"/>
    <type id="highway.primary_link" priority="7" numLanes="1" speed="22.22" disallow="tram rail_urban rail rail_electric rail_fast ship" oneway="0"/>
    <type id="highway.raceway" priority="15" numLanes="2" speed="83.33" allow="vip" oneway="0"/>
    <type id="highway.residential" priority="3" numLanes="1" speed="13.89" disallow="tram rail_urban rail rail_electric rail_fast ship" oneway="0"/>
    <type id="highway.secondary" priority="11" numLanes="1" speed="27.78" disallow="tram rail_urban rail rail_electric rail_fast ship" oneway="0"/>
    <type id="highway.secondary_link" priority="6" numLanes="1" speed="22.22" disallow="tram rail_urban rail rail_electric rail_fast ship" oneway="0"/>
    <type id="highway.service" priority="1" numLanes="1" speed="5.56" allow="pedestrian delivery bicycle" oneway="0"/>
    <type id="highway.stairs" priority="1" numLanes="1" speed="1.39" allow="pedestrian" oneway="1" width="2.00"/>
    <type id="highway.step" priority="1" numLanes="1" speed="1.39" allow="pedestrian" oneway="1" width="2.00"/>
    <type id="highway.steps" priority="1" numLanes="1" speed="1.39" allow="pedestrian" oneway="1" width="2.00"/>
    <type id="highway.tertiary" priority="10" numLanes="1" speed="22.22" disallow="tram rail_urban rail rail_electric rail_fast ship" oneway="0"/>
    <type id="highway.tertiary_link" priority="5" numLanes="1" speed="22.22" disallow="tram rail_urban rail rail_electric rail_fast ship" oneway="0"/>
    <type id="highway.track" priority="1" numLanes="1" speed="5.56" allow="pedestrian motorcycle moped bicycle" oneway="0"/>
    <type id="highway.trunk" priority="13" numLanes="2" speed="27.78" disallow="pedestrian bicycle tram rail_urban rail rail_electric rail_fast ship" oneway="0"/>
    <type id="highway.trunk_link" priority="8" numLanes="1" speed="22.22" disallow="pedestrian bicycle tram rail_urban rail rail_electric rail_fast ship" oneway="0"/>
    <type id="highway.unclassified" priority="4" numLanes="1" speed="13.89" disallow="tram rail_urban rail rail_electric rail_fast ship" oneway="0"/>
    <type id="highway.unsurfaced" priority="1" numLanes="1" speed="8.33" disallow="tram rail_urban rail rail_electric rail_fast ship" oneway="0"/>
    <type id="railway.highspeed" priority="21" numLanes="1" speed="69.44" allow="rail_fast" oneway="1"/>
    <type id="railway.light_rail" priority="19" numLanes="1" speed="27.78" allow="rail_urban" oneway="1"/>
    <type id="railway.preserved" priority="16" numLanes="1" speed="27.78" allow="rail" oneway="1"/>
    <type id="railway.rail" priority="20" numLanes="1" speed="44.44" allow="rail" oneway="1"/>
    <type id="railway.subway" priority="18" numLanes="1" speed="27.78" allow="rail_urban" oneway="1"/>
    <type id="railway.tram" priority="17" numLanes="1" speed="13.89" allow="tram" oneway="1"/>

    <edge id="-108402216#0" from="5445932327" to="1243960690" priority="1" type="highway.service">
        <lane id="-108402216#0_0" index="0" allow="pedestrian delivery bicycle" speed="5.56" length="61.25" shape="471.46,1445.19 470.05,1391.80"/>
    </edge>
    <edge id="-108402216#1" from="1243960638" to="5445932327" priority="1" type="highway.service">
        <lane id="-108402216#1_0" index="0" allow="pedestrian delivery bicycle" speed="5.56" length="61.07" shape="472.70,1503.05 471.68,1454.59"/>
    </edge>
    <edge id="-108402217#0" from="5445789493" to="1243960707" priority="1" type="highway.service">
        <lane id="-108402217#0_0" index="0" allow="pedestrian delivery bicycle" speed="5.56" length="77.29" shape="929.71,1599.31 863.42,1600.87"/>
    </edge>
    <edge id="-108402217#1" from="1243960712" to="5445789493" priority="1" type="highway.service">
        <lane id="-108402217#1_0" index="0" allow="pedestrian delivery bicycle" speed="5.56" length="74.99" shape="1001.47,1597.63 939.10,1599.09"/>
    </edge>
    <edge id="-120478418#1" from="49748771" to="2504794158" priority="12" type="highway.primary" shape="1207.00,201.71 1183.46,202.06 1170.72,202.37">
        <lane id="-120478418#1_0" index="0" disallow="tram rail_urban rail rail_electric rail_fast ship" speed="11.18" length="36.29" shape="1204.25,212.95 1183.68,213.26 1181.46,213.32"/>
        <lane id="-120478418#1_1" index="1" disallow="tram rail_urban rail rail_electric rail_fast ship" speed="11.18" length="36.29" shape="1204.20,209.75 1183.62,210.06 1181.38,210.12"/>
        <lane id="-120478418#1_2" index="2" disallow="tram rail_urban rail rail_electric rail_fast ship" speed="11.18" length="36.29" shape="1204.15,206.55 1183.55,206.86 1181.30,206.92"/>
        <lane id="-120478418#1_3" index="3" disallow="tram rail_urban rail rail_electric rail_fast ship" speed="11.18" length="36.29" shape="1204.10,203.35 1183.49,203.66 1181.22,203.72"/>
        <param key="ref" value="US 50"/>
    </edge>
    <edge id="-120478418#3" from="8254268653" to="49748771" priority="12" type="highway.primary" shape="1424.99,196.89 1413.49,197.19 1207.00,201.71">
        <lane id="-120478418#3_0" index="0" disallow="tram rail_urban rail rail_electric rail_fast ship" speed="11.18" length="218.05" shape="1417.92,208.28 1413.75,208.39 1210.44,212.83"/>
        <lane id="-120478418#3_1" index="1" disallow="tram rail_urban rail rail_electric rail_fast ship" speed="11.18" length="218.05" shape="1417.83,205.08 1413.68,205.19 1210.37,209.63"/>
        <lane id="-120478418#3_2" index="2" disallow="tram rail_urban rail rail_electric rail_fast ship" speed="11.18" length="218.05" shape="1417.75,201.88 1413.60,201.99 1210.30,206.43"/>
        <lane id="-120478418#3_3" index="3" disallow="tram rail_urban rail rail_electric rail_fast ship" speed="11.18" length="218.05" shape="1417.67,198.68 1413.52,198.79 1210.23,203.24"/>
        <param key="ref" value="US 50"/>
    </edge>
    <edge id="-120478419#1" from="1350845800" to="520072065" priority="12" type="highway.primary" shape="1766.38,188.54 1807.75,187.79 1822.65,187.16">
        <lane id="-120478419#1_0" index="0" disallow="tram rail_urban rail rail_electric rail_fast ship" speed="11.18" length="56.28" shape="1770.18,177.27 1807.41,176.59 1808.29,176.56"/>
        <lane id="-120478419#1_1" index="1" disallow="tram rail_urban rail rail_electric rail_fast ship" speed="11.18" length="56.28" shape="1770.24,180.47 1807.51,179.79 1808.42,179.75"/>
        <lane id="-120478419#1_2" index="2" disallow="tram rail_urban rail rail_electric rail_fast ship" speed="11.18" length="56.28" shape="1770.30,183.67 1807.61,182.99 1808.56,182.95"/>
        <lane id="-120478419#1_3" index="3" disallow="tram rail_urban rail rail_electric rail_fast ship" speed="11.18" length="56.28" shape="1770.36,186.87 1807.70,186.19 1808.69,186.15"/>
        <param key="ref" value="US 50"/>
    </edge>
    <edge id="-120478694#2" from="520072065" to="4303519741" priority="12" type="highway.primary" shape="1822.65,187.16 1822.53,171.25 1822.52,166.56 1821.59,97.93 1819.87,32.63 1819.50,14.09 1819.35,9.75 1819.03,0.96">
        <lane id="-120478694#2_0" index="0" disallow="tram rail_urban rail rail_electric rail_fast ship" speed="27.78" length="186.24" shape="1814.53,170.24 1814.52,166.62 1813.59,98.09 1811.87,32.81 1811.50,14.28 1811.36,10.03 1811.03,1.25"/>
        <lane id="-120478694#2_1" index="1" disallow="tram rail_urban rail rail_electric rail_fast ship" speed="27.78" length="186.24" shape="1817.73,170.21 1817.72,166.59 1816.79,98.02 1815.07,32.74 1814.70,14.20 1814.56,9.92 1814.23,1.14"/>
        <lane id="-120478694#2_2" index="2" disallow="tram rail_urban rail rail_electric rail_fast ship" speed="27.78" length="186.24" shape="1820.93,170.19 1820.92,166.57 1819.99,97.96 1818.27,32.67 1817.90,14.13 1817.75,9.80 1817.43,1.02"/>
        <param key="ref" value="US 1"/>
    </edge>
    <edge id="-120478695#2" from="49762383" to="3669554878" priority="12" type="highway.primary" shape="2883.31,854.24 2883.25,842.26 2881.33,759.10 2881.07,746.38">
        <lane id="-120478695#2_0" index="0" disallow="tram rail_urban rail rail_electric rail_fast ship" speed="27.78" length="107.88" shape="2875.27,846.78 2875.25,842.37 2873.33,759.28 2873.28,756.99"/>
        <lane id="-120478695#2_1" index="1" disallow="tram rail_urban rail rail_electric rail_fast ship" speed="27.78" length="107.88" shape="2878.47,846.76 2878.45,842.33 2876.53,759.21 2876.48,756.93"/>
        <lane id="-120478695#2_2" index="2" disallow="tram rail_urban rail rail_electric rail_fast ship" speed="27.78" length="107.88" shape="2881.67,846.75 2881.65,842.28 2879.73,759.13 2879.68,756.87"/>
        <param key="ref" value="US 1;US 50;I 395 Alt"/>
    </edge>
    <edge id="-120478695#3" from="2790488427" to="49762383" priority="12" type="highway.primary">
        <lane id="-120478695#3_0" index="0" disallow="tram rail_urban rail rail_electric rail_fast ship" speed="27.78" length="40.42" shape="2876.17,890.21 2875.48,861.50"/>
        <lane id="-120478695#3_1" index="1" disallow="tram rail_urban rail rail_electric rail_fast ship" speed="27.78" length="40.42" shape="2879.37,890.13 2878.68,861.43"/>
        <lane id="-120478695#3_2" index="2" disallow="tram rail_urban rail rail_electric rail_fast ship" speed="27.78" length="40.42" shape="2882.57,890.06 2881.88,861.35"/>
        <param key="ref" value="US 1;US 50;I 395 Alt"/>
    </edge>
    <edge id="-121782030#0" from="3705029882" to="1362307949" priority="1" type="highway.service" shape="795.06,1616.02 796.49,1615.98 857.43,1615.15">
        <lane id="-121782030#0_0" index="0" allow="pedestrian delivery bicycle" speed="5.56" length="62.37" shape="799.75,1614.34 851.08,1613.63"/>
    </edge>
    <edge id="-121782030#1" from="1362307943" to="3705029882" priority="1" type="highway.service">
        <lane id="-121782030#1_0" index="0" allow="pedestrian delivery bicycle" speed="5.56" length="63.18" shape="738.17,1616.21 790.24,1614.57"/>
    </edge>
    <edge id="-121782031" from="5054301682" to="1362307956" priority="1" type="highway.service">
        <lane id="-121782031_0" index="0" allow="pedestrian delivery bicycle" speed="5.56" length="57.63" shape="1514.40,1592.96 1477.93,1594.70"/>
    </edge>
    <edge id="-121980349" from="635178634" to="262295428" priority="12" type="highway.primary">
        <lane id="-121980349_0" index="0" disallow="tram rail_urban rail rail_electric rail_fast ship" speed="27.78" length="100.94" shape="1465.39,1753.71 1467.10,1843.19"/>
        <lane id="-121980349_1" index="1" disallow="tram rail_urban rail rail_electric rail_fast ship" speed="27.78" length="100.94" shape="1462.19,1753.77 1463.90,1843.25"/>
    </edge>
    <edge id="-121980352" from="49842924" to="641116216" priority="12" type="highway.primary">
        <lane id="-121980352_0" index="0" disallow="tram rail_urban rail rail_electric rail_fast ship" speed="27.78" length="12.40" shape="1459.19,1362.46 1459.20,1362.66"/>
        <lane id="-121980352_1" index="1" disallow="tram rail_urban rail rail_electric rail_fast ship" speed="27.78" length="12.40" shape="1455.99,1362.50 1456.00,1362.70"/>
        <lane id="-121980352_2" index="2" disallow="tram rail_urban rail rail_electric rail_fast ship" speed="27.78" length="12.40" shape="1452.79,1362.54 1452.80,1362.74"/>
    </edge>
    <edge id="-125568108#1" from="4772585558" to="49734104" priority="12" type="highway.primary" shape="2280.53,1571.61 2279.54,1525.92 2279.40,1517.52">
        <lane id="-125568108#1_0" index="0" disallow="tram rail_urban rail rail_electric rail_fast ship" speed="27.78" length="54.10" shape="2278.82,1566.94 2277.95,1525.96 2277.93,1524.81"/>
        <param key="ref" value="US 29"/>
    </edge>
    <edge id="-125568108#2" from="5446746094" to="4772585558" priority="12" type="highway.primary">
        <lane id="-125568108#2_0" index="0" disallow="tram rail_urban rail rail_electric rail_fast ship" speed="27.78" length="69.12" shape="2280.30,1636.02 2279.03,1576.34"/>
        <param key="ref" value="US 29"/>
    </edge>
    <edge id="-125568108#4" from="3012829798" to="5446746094" priority="12" type="highway.primary" shape="2282.93,1681.78 2282.77,1672.69 2282.00,1640.71">
        <lane id="-125568108#4_0" index="0" disallow="tram rail_urban rail rail_electric rail_fast ship" speed="27.78" length="41.09" shape="2281.21,1674.63 2281.17,1672.72 2280.51,1645.41"/>
        <param key="ref" value="US 29"/>
    </edge>
    <edge id="-125568108#7" from="3995242874" to="3012829798" priority="12" type="highway.primary" shape="2289.30,1966.57 2289.23,1960.20 2288.52,1935.76 2287.94,1903.18 2287.49,1886.42 2287.18,1868.71 2287.06,1858.71 2286.86,1850.21 2284.00,1733.45 2282.92,1692.93 2282.93,1681.78">
        <lane id="-125568108#7_0" index="0" disallow="tram rail_urban rail rail_electric rail_fast ship" speed="27.78" length="284.86" shape="2287.71,1966.58 2287.63,1960.24 2286.93,1935.80 2286.34,1903.22 2285.89,1886.46 2285.58,1868.73 2285.46,1858.74 2285.26,1850.25 2282.40,1733.49 2281.32,1692.95 2281.32,1689.07"/>
        <param key="ref" value="US 29"/>
    </edge>
    <edge id="-126303356#1" from="4697534334" to="49764289" priority="12" type="highway.primary" shape="1737.62,1347.27 1716.31,1347.75 1703.58,1348.49">
        <lane id="-126303356#1_0" index="0" disallow="tram rail_urban rail rail_electric rail_fast ship" speed="27.78" length="43.42" shape="1740.20,1352.01 1716.51,1352.55 1714.63,1352.66"/>
        <lane id="-126303356#1_1" index="1" disallow="tram rail_urban rail rail_electric rail_fast ship" speed="27.78" length="43.42" shape="1740.13,1348.81 1716.38,1349.35 1714.44,1349.47"/>
        <param key="ref" value="US 29"/>
    </edge>
    <edge id="-126303361#1" from="cluster_3027665435_3547111213" to="3027663729" priority="11" type="highway.secondary" shape="1850.52,1411.37 1849.52,1365.22 1849.23,1357.27">
        <lane id="-126303361#1_0" index="0" disallow="tram rail_urban rail rail_electric rail_fast ship" speed="27.78" length="56.24" shape="1842.42,1406.74 1841.54,1366.45"/>
        <lane id="-126303361#1_1" index="1" disallow="tram rail_urban rail rail_electric rail_fast ship" speed="27.78" length="56.24" shape="1845.61,1406.67 1844.74,1366.34"/>
        <lane id="-126303361#1_2" index="2" disallow="tram rail_urban rail rail_electric rail_fast ship" speed="27.78" length="56.24" shape="1848.81,1406.60 1847.94,1366.23"/>
    </edge>
    <edge id="-126303361#4" from="49745644" to="cluster_3027665435_3547111213" priority="11" type="highway.secondary" shape="1851.82,1479.05 1851.81,1469.32 1850.92,1430.93 1850.67,1415.61">
        <lane id="-126303361#4_0" index="0" disallow="tram rail_urban rail rail_electric rail_fast ship" speed="27.78" length="65.57" shape="1843.80,1469.16 1842.92,1431.09 1842.75,1420.36"/>
        <lane id="-126303361#4_1" index="1" disallow="tram rail_urban rail rail_electric rail_fast ship" speed="27.78" length="65.57" shape="1847.00,1469.15 1846.12,1431.03 1845.95,1420.31"/>
        <lane id="-126303361#4_2" index="2" disallow="tram rail_urban rail rail_electric rail_fast ship" speed="27.78" length="65.57" shape="1850.20,1469.15 1849.32,1430.96 1849.15,1420.26"/>
    </edge>
    <edge id="-126303361#7" from="cluster_1439430728_3955782119" to="49745644" priority="11" type="highway.secondary" shape="1852.85,1520.25 1851.95,1489.70 1851.89,1484.43 1851.82,1479.05">
        <lane id="-126303361#7_0" index="0" disallow="tram rail_urban rail rail_electric rail_fast ship" speed="27.78" length="45.14" shape="1844.72,1516.03 1843.95,1489.95"/>
        <lane id="-126303361#7_1" index="1" disallow="tram rail_urban rail rail_electric rail_fast ship" speed="27.78" length="45.14" shape="1847.92,1515.94 1847.15,1489.91"/>
        <lane id="-126303361#7_2" index="2" disallow="tram rail_urban rail rail_electric rail_fast ship" speed="27.78" length="45.14" shape="1851.12,1515.84 1850.36,1489.87"/>
    </edge>
    <edge id="-126303362#1" from="cluster_2053263870_8245233135_8245233140" to="49764249" priority="12" type="highway.primary" shape="1687.03,573.93 1687.40,588.38 1689.16,655.73 1689.43,669.11">
        <lane id="-126303362#1_0" index="0" disallow="tram rail_urban rail rail_electric rail_fast ship" speed="27.78" length="100.61" shape="1692.06,583.01 1692.20,588.25 1693.96,655.61 1694.09,661.92"/>
        <lane id="-126303362#1_1" index="1" disallow="tram rail_urban rail rail_electric rail_fast ship" speed="27.78" length="100.61" shape="1688.86,583.10 1689.00,588.34 1690.76,655.69 1690.89,661.99"/>
    </edge>
    <edge id="-126303366#1" from="1240476053" to="49770789" priority="12" type="highway.primary" shape="1198.00,1302.68 1196.52,1238.23 1196.23,1226.03">
        <lane id="-126303366#1_0" index="0" disallow="tram rail_urban rail rail_electric rail_fast ship" speed="27.78" length="77.10" shape="1189.99,1302.41 1188.52,1238.41 1188.48,1236.72"/>
        <lane id="-126303366#1_1" index="1" disallow="tram rail_urban rail rail_electric rail_fast ship" speed="27.78" length="77.10" shape="1193.19,1302.34 1191.72,1238.34 1191.68,1236.64"/>
        <lane id="-126303366#1_2" index="2" disallow="tram rail_urban rail rail_electric rail_fast ship" speed="27.78" length="77.10" shape="1196.39,1302.27 1194.92,1238.26 1194.88,1236.57"/>
    </edge>
    <edge id="-130285136#2" from="1381212154" to="4629734412" priority="11" type="highway.secondary" shape="844.76,1110.02 855.22,1105.28 893.95,1086.90 917.05,1075.89">
        <lane id="-130285136#2_0" index="0" disallow="tram rail_urban rail rail_electric rail_fast ship" speed="27.78" length="79.94" shape="881.83,1087.34 891.89,1082.57 911.37,1073.28"/>
        <lane id="-130285136#2_1" index="1" disallow="tram rail_urban rail rail_electric rail_fast ship" speed="27.78" length="79.94" shape="883.15,1090.25 893.26,1085.46 912.75,1076.17"/>
    </edge>
    <edge id="-130772954#1" from="cluster_1363151551_7794354473" to="cluster_1439430728_3955782119" priority="11" type="highway.secondary" shape="1853.33,1535.69 1853.11,1528.10">
        <lane id="-130772954#1_0" index="0" disallow="tram rail_urban rail rail_electric rail_fast ship" speed="27.78" length="18.17" shape="1848.53,1535.83 1848.45,1533.03"/>
        <lane id="-130772954#1_1" index="1" disallow="tram rail_urban rail rail_electric rail_fast ship" speed="27.78" length="18.17" shape="1851.73,1535.73 1851.65,1532.93"/>
    </edge>
    <edge id="-130788155#1" from="49846819" to="49773539" priority="10" type="highway.tertiary" shape="2366.48,1333.68 2289.17,1334.88 2275.71,1335.01">
        <lane id="-130788155#1_0" index="0" disallow="tram rail_urban rail rail_electric rail_fast ship" speed="22.22" length="90.78" shape="2359.28,1335.39 2289.20,1336.48 2286.11,1336.51"/>
    </edge>
    <edge id="-130788158#1" from="cluster_49765145_647622726_647622728" to="3001409611" priority="11" type="highway.secondary" shape="374.57,1512.51 367.08,1503.14 362.52,1497.15">
        <lane id="-130788158#1_0" index="0" disallow="tram rail_urban rail rail_electric rail_fast ship" speed="27.78" length="31.63" shape="365.25,1503.38 363.67,1501.30"/>
    </edge>
    <edge id="-130788167#0" from="5445932316" to="cluster_49765145_647622726_647622728" priority="11" type="highway.secondary" shape="424.31,1576.22 390.35,1532.39">
        <lane id="-130788167#0_0" index="0" disallow="tram rail_urban rail rail_electric rail_fast ship" speed="11.18" length="69.30" shape="420.18,1573.50 399.18,1546.39"/>
    </edge>
    <edge id="-130788167#2" from="49765155" to="5445932316" priority="11" type="highway.secondary" shape="504.85,1680.99 492.81,1665.94 489.18,1661.41 424.31,1576.22">
        <lane id="-130788167#2_0" index="0" disallow="tram rail_urban rail rail_electric rail_fast ship" speed="11.18" length="132.16" shape="492.74,1668.42 491.56,1666.94 487.92,1662.39 425.88,1580.93"/>
    </edge>
    <edge id="-130788190" from="49734104" to="49773544" priority="12" type="highway.primary" shape="2279.40,1517.52 2279.28,1511.98 2279.03,1503.71 2278.73,1493.79">
        <lane id="-130788190_0" index="0" disallow="tram rail_urban rail rail_electric rail_fast ship" speed="27.78" length="23.75" shape="2277.63,1510.52 2277.61,1509.65"/>
        <param key="ref" value="US 29"/>
    </edge>
    <edge id="-130788192#2" from="49773543" to="49773539" priority="12" type="highway.primary" shape="2278.15,1470.40 2278.05,1462.82 2275.75,1345.63 2275.71,1335.01">
        <lane id="-130788192#2_0" index="0" disallow="tram rail_urban rail rail_electric rail_fast ship" speed="27.78" length="135.41" shape="2273.22,1461.27 2270.95,1345.68 2270.95,1345.46"/>
        <lane id="-130788192#2_1" index="1" disallow="tram rail_urban rail rail_electric rail_fast ship" speed="27.78" length="135.41" shape="2276.42,1461.22 2274.15,1345.64 2274.15,1345.45"/>
        <param key="ref" value="US 29"/>
    </edge>
    <edge id="-130788195" from="49773544" to="49773543" priority="12" type="highway.primary" shape="2278.73,1493.79 2278.36,1482.49 2278.15,1470.40">
        <lane id="-130788195_0" index="0" disallow="tram rail_urban rail rail_electric rail_fast ship" speed="27.78" length="23.39" shape="2273.52,1479.90 2273.51,1479.43"/>
        <lane id="-130788195_1" index="1" disallow="tram rail_urban rail rail_electric rail_fast ship" speed="27.78" length="23.39" shape="2276.72,1479.80 2276.71,1479.38"/>
        <param key="ref" value="US 29"/>
    </edge>
    <edge id="-130788227#2" from="3012784288" to="3012784293" priority="11" type="highway.secondary" shape="2725.68,1672.10 2725.38,1663.49 2722.24,1521.72 2721.52,1507.53">
        <lane id="-130788227#2_0" index="0" disallow="tram rail_urban rail rail_electric rail_fast ship" speed="27.78" length="164.63" shape="2720.63,1664.91 2720.58,1663.62 2717.45,1521.89 2717.26,1518.22"/>
        <lane id="-130788227#2_1" index="1" disallow="tram rail_urban rail rail_electric rail_fast ship" speed="27.78" length="164.63" shape="2723.82,1664.80 2723.78,1663.53 2720.65,1521.77 2720.46,1518.06"/>
    </edge>
    <edge id="-130788227#5" from="49773027" to="3012784288" priority="11" type="highway.secondary" shape="2730.97,1847.92 2730.67,1838.37 2730.35,1818.25 2729.55,1778.30 2727.52,1722.70 2726.06,1683.05 2725.68,1672.10">
        <lane id="-130788227#5_0" index="0" disallow="tram rail_urban rail rail_electric rail_fast ship" speed="27.78" length="175.91" shape="2726.17,1848.07 2725.87,1838.48 2725.55,1818.34 2724.75,1778.43 2722.72,1722.88 2721.27,1683.22 2721.14,1679.62"/>
        <lane id="-130788227#5_1" index="1" disallow="tram rail_urban rail rail_electric rail_fast ship" speed="27.78" length="175.91" shape="2729.37,1847.97 2729.07,1838.40 2728.75,1818.28 2727.95,1778.34 2725.92,1722.76 2724.47,1683.11 2724.34,1679.51"/>
    </edge>
    <edge id="-130802359#1" from="8862369621" to="49772987" priority="11" type="highway.secondary" shape="2797.82,1022.60 2725.31,1024.62 2712.81,1024.84">
        <lane id="-130802359#1_0" index="0" disallow="tram rail_urban rail rail_electric rail_fast ship" speed="11.18" length="85.04" shape="2793.56,1030.72 2725.50,1032.61 2723.19,1032.66"/>
        <lane id="-130802359#1_1" index="1" disallow="tram rail_urban rail rail_electric rail_fast ship" speed="11.18" length="85.04" shape="2793.47,1027.52 2725.42,1029.42 2723.14,1029.46"/>
        <lane id="-130802359#1_2" index="2" disallow="tram rail_urban rail rail_electric rail_fast ship" speed="11.18" length="85.04" shape="2793.38,1024.32 2725.35,1026.22 2723.08,1026.26"/>
    </edge>
    <edge id="-130802359#2" from="2790488465" to="8862369621" priority="11" type="highway.secondary">
        <lane id="-130802359#2_0" index="0" disallow="tram rail_urban rail rail_electric rail_fast ship" speed="11.18" length="27.65" shape="2820.82,1030.16 2802.97,1030.50"/>
        <lane id="-130802359#2_1" index="1" disallow="tram rail_urban rail rail_electric rail_fast ship" speed="11.18" length="27.65" shape="2820.76,1026.96 2802.91,1027.30"/>
        <lane id="-130802359#2_2" index="2" disallow="tram rail_urban rail rail_electric rail_fast ship" speed="11.18" length="27.65" shape="2820.70,1023.76 2802.85,1024.10"/>
    </edge>
    <edge id="-130802371#2" from="49764249" to="49764251" priority="12" type="highway.primary" shape="1689.43,669.11 1689.89,683.41 1691.03,759.17 1691.40,773.99">
        <lane id="-130802371#2_0" index="0" disallow="tram rail_urban rail rail_electric rail_fast ship" speed="27.78" length="104.90" shape="1697.67,676.33 1697.89,683.22 1699.03,759.01 1699.14,763.44"/>
        <lane id="-130802371#2_1" index="1" disallow="tram rail_urban rail rail_electric rail_fast ship" speed="27.78" length="104.90" shape="1694.47,676.43 1694.69,683.29 1695.83,759.07 1695.94,763.52"/>
        <lane id="-130802371#2_2" index="2" disallow="tram rail_urban rail rail_electric rail_fast ship" speed="27.78" length="104.90" shape="1691.27,676.53 1691.49,683.37 1692.63,759.13 1692.74,763.60"/>
    </edge>
    <edge id="-130802376#2" from="3669554857" to="49772987" priority="10" type="highway.tertiary" shape="2716.14,1141.69 2716.15,1131.21 2713.18,1036.56 2712.81,1024.84">
        <lane id="-130802376#2_0" index="0" disallow="tram rail_urban rail rail_electric rail_fast ship" speed="22.22" length="116.90" shape="2714.55,1134.43 2714.55,1131.23 2711.64,1038.53"/>
    </edge>
    <edge id="-130889749#1" from="5445407433" to="49777820" priority="11" type="highway.secondary" shape="2042.40,955.39 2043.67,1023.20 2043.74,1026.96 2044.32,1039.56">
        <lane id="-130889749#1_0" index="0" disallow="tram rail_urban rail rail_electric rail_fast ship" speed="27.78" length="84.19" shape="2053.69,959.98 2054.86,1022.99 2054.92,1025.88"/>
        <lane id="-130889749#1_1" index="1" disallow="tram rail_urban rail rail_electric rail_fast ship" speed="27.78" length="84.19" shape="2050.49,960.04 2051.67,1023.05 2051.72,1026.02"/>
        <lane id="-130889749#1_2" index="2" disallow="tram rail_urban rail rail_electric rail_fast ship" speed="27.78" length="84.19" shape="2047.29,960.10 2048.47,1023.11 2048.53,1026.17"/>
        <lane id="-130889749#1_3" index="3" disallow="tram rail_urban rail rail_electric rail_fast ship" speed="27.78" length="84.19" shape="2044.09,960.16 2045.27,1023.17 2045.33,1026.31"/>
    </edge>
    <edge id="-130889749#2" from="4001147641" to="5445407433" priority="11" type="highway.secondary" shape="2041.63,919.82 2042.31,950.46 2042.40,955.39">
        <lane id="-130889749#2_0" index="0" disallow="tram rail_urban rail rail_electric rail_fast ship" speed="27.78" length="35.58" shape="2052.91,923.57 2053.51,950.22"/>
        <lane id="-130889749#2_1" index="1" disallow="tram rail_urban rail rail_electric rail_fast ship" speed="27.78" length="35.58" shape="2049.71,923.64 2050.31,950.28"/>